@<TRIPOS>MOLECULE
RES
10252 10150 1 0 1
SMALL
NO_CHARGES
@<TRIPOS>CRYSIN
   72.4259    64.5914    39.2939    90.0000    90.0000    90.0000  1  1
@<TRIPOS>ATOM
       1 N           32.8634    16.4317     5.0000 N             1 RES     
       2 C           32.9859    17.8930     5.2164 C             1 RES     
       3 H           33.8863    18.3078     4.7159 H             1 RES     
       4 H           33.0871    18.1294     6.2997 H             1 RES     
       5 H           32.0911    18.4309     4.8309 H             1 RES     
       6 C           34.0833    15.7534     5.4991 C             1 RES     
       7 H           34.0278    14.6549     5.3296 H             1 RES     
       8 H           34.2177    15.9250     6.5909 H             1 RES     
       9 H           34.9989    16.1384     5.0024 H             1 RES     
      10 C           31.7033    15.9399     5.7821 C             1 RES     
      11 H           31.8294    16.1482     6.8687 H             1 RES     
      12 H           31.5752    14.8404     5.6630 H             1 RES     
      13 H           30.7595    16.4307     5.4530 H             1 RES     
      14 C           32.6168    16.1150     3.5602 C             1 RES     
      15 H           31.6735    16.5985     3.2192 H             1 RES     
      16 H           32.4844    15.0174     3.4280 H             1 RES     
      17 C           33.7224    16.5538     2.5893 C             1 RES     
      18 H           34.6855    16.0380     2.7771 H             1 RES     
      19 H           33.8569    17.6538     2.5636 H             1 RES     
      20 P           32.7966    17.3862     0.4251 P             1 RES     
      21 O           32.5962    17.0246    -1.1206 O             1 RES     
      22 O           33.5543    16.1843     1.1609 O             1 RES     
      23 O           33.7042    18.7028     0.4782 O             1 RES     
      24 O           31.3352    17.5610     1.0524 O             1 RES     
      25 C           31.8919    18.1594    -1.7698 C             1 RES     
      26 H           32.4916    19.0640    -1.6696 H             1 RES     
      27 H           30.9248    18.3089    -1.2898 H             1 RES     
      28 C           32.2700    16.4613    -3.5864 C             1 RES     
      29 H           33.3367    16.4592    -3.3625 H             1 RES     
      30 H           31.7699    15.7040    -2.9827 H             1 RES     
      31 C           31.6807    17.8468    -3.2629 C             1 RES     
      32 H           30.6139    17.8489    -3.4869 H             1 RES     
      33 C           33.3759    16.7824    -5.4073 C             1 RES     
      34 O           34.1688    17.2981    -4.6210 O             1 RES     
      35 O           32.0683    16.1630    -5.0117 O             1 RES     
      36 C           33.5739    16.6802    -6.8198 C             1 RES     
      37 H           32.7675    17.1970    -7.3401 H             1 RES     
      38 H           33.5736    15.6276    -7.1027 H             1 RES     
      39 C           34.9230    17.3148    -7.2058 C             1 RES     
      40 H           35.7294    16.7980    -6.6855 H             1 RES     
      41 H           34.9233    18.3674    -6.9230 H             1 RES     
      42 C           35.1323    17.1922    -8.7266 C             1 RES     
      43 H           34.3258    17.7090    -9.2469 H             1 RES     
      44 H           35.1320    16.1395    -9.0095 H             1 RES     
      45 C           36.4813    17.8267    -9.1127 C             1 RES     
      46 H           37.2877    17.3099    -8.5924 H             1 RES     
      47 H           36.4816    18.8794    -8.8298 H             1 RES     
      48 C           36.6906    17.7041   -10.6334 C             1 RES     
      49 H           35.8842    18.2209   -11.1537 H             1 RES     
      50 H           36.6903    16.6515   -10.9163 H             1 RES     
      51 C           38.0397    18.3386   -11.0195 C             1 RES     
      52 H           38.8461    17.8219   -10.4992 H             1 RES     
      53 H           38.0400    19.3913   -10.7366 H             1 RES     
      54 C           38.2490    18.2161   -12.5403 C             1 RES     
      55 H           37.4426    18.7329   -13.0606 H             1 RES     
      56 H           38.2487    17.1634   -12.8231 H             1 RES     
      57 C           39.5980    18.8506   -12.9263 C             1 RES     
      58 H           40.4045    18.3338   -12.4060 H             1 RES     
      59 H           39.5983    19.9033   -12.6434 H             1 RES     
      60 C           39.8073    18.7280   -14.4471 C             1 RES     
      61 H           39.0009    19.2448   -14.9674 H             1 RES     
      62 H           39.8070    17.6754   -14.7299 H             1 RES     
      63 C           41.1564    19.3625   -14.8331 C             1 RES     
      64 H           41.9628    18.8457   -14.3128 H             1 RES     
      65 H           41.1567    20.4152   -14.5503 H             1 RES     
      66 C           41.3657    19.2400   -16.3539 C             1 RES     
      67 H           40.5593    19.7568   -16.8742 H             1 RES     
      68 H           41.3654    18.1873   -16.6368 H             1 RES     
      69 C           42.7147    19.8745   -16.7399 C             1 RES     
      70 H           43.5212    19.3577   -16.2196 H             1 RES     
      71 H           42.7150    20.9271   -16.4571 H             1 RES     
      72 C           42.9240    19.7519   -18.2607 C             1 RES     
      73 H           42.1176    20.2687   -18.7810 H             1 RES     
      74 H           42.9237    18.6993   -18.5436 H             1 RES     
      75 C           44.2731    20.3864   -18.6468 C             1 RES     
      76 H           45.0795    19.8696   -18.1265 H             1 RES     
      77 H           44.2734    21.4391   -18.3639 H             1 RES     
      78 C           44.4824    20.2639   -20.1675 C             1 RES     
      79 H           43.6760    20.7806   -20.6878 H             1 RES     
      80 H           44.4821    19.2112   -20.4504 H             1 RES     
      81 C           45.8314    20.8984   -20.5536 C             1 RES     
      82 H           46.6379    20.3816   -20.0333 H             1 RES     
      83 H           45.8317    21.9510   -20.2707 H             1 RES     
      84 C           46.0312    20.7814   -22.0052 C             1 RES     
      85 H           46.5157    19.8381   -21.8625 H             1 RES     
      86 H           46.5495    21.3387   -22.7575 H             1 RES     
      87 H           45.0191    20.6197   -22.3148 H             1 RES     
      88 C           31.7926    18.2731    -5.3317 C             1 RES     
      89 O           31.0584    17.2895    -5.4118 O             1 RES     
      90 O           32.3298    18.8299    -4.0467 O             1 RES     
      91 C           32.2444    19.0496    -6.4442 C             1 RES     
      92 H           33.3337    19.0346    -6.4819 H             1 RES     
      93 H           31.8986    20.0762    -6.3239 H             1 RES     
      94 C           31.6779    18.4675    -7.7526 C             1 RES     
      95 H           30.5886    18.4825    -7.7149 H             1 RES     
      96 H           32.0237    17.4408    -7.8730 H             1 RES     
      97 C           32.1617    19.3148    -8.9441 C             1 RES     
      98 H           33.2509    19.2998    -8.9817 H             1 RES     
      99 H           31.8158    20.3414    -8.8237 H             1 RES     
     100 C           31.5951    18.7327   -10.2525 C             1 RES     
     101 H           30.5059    18.7477   -10.2148 H             1 RES     
     102 H           31.9410    17.7061   -10.3728 H             1 RES     
     103 C           32.0789    19.5800   -11.4439 C             1 RES     
     104 H           33.1682    19.5650   -11.4816 H             1 RES     
     105 H           31.7331    20.6066   -11.3236 H             1 RES     
     106 C           31.5124    18.9979   -12.7523 C             1 RES     
     107 H           30.4231    19.0129   -12.7147 H             1 RES     
     108 H           31.8582    17.9713   -12.8727 H             1 RES     
     109 C           31.9961    19.8452   -13.9438 C             1 RES     
     110 H           33.0854    19.8302   -13.9815 H             1 RES     
     111 H           31.6503    20.8719   -13.8234 H             1 RES     
     112 C           31.4296    19.2631   -15.2522 C             1 RES     
     113 H           30.3403    19.2781   -15.2145 H             1 RES     
     114 H           31.7754    18.2365   -15.3725 H             1 RES     
     115 C           31.9134    20.1104   -16.4437 C             1 RES     
     116 H           33.0026    20.0955   -16.4813 H             1 RES     
     117 H           31.5675    21.1371   -16.3233 H             1 RES     
     118 C           31.3468    19.5284   -17.7520 C             1 RES     
     119 H           30.2576    19.5433   -17.7144 H             1 RES     
     120 H           31.6926    18.5017   -17.8724 H             1 RES     
     121 C           31.8306    20.3756   -18.9435 C             1 RES     
     122 H           32.9198    20.3607   -18.9812 H             1 RES     
     123 H           31.4848    21.4023   -18.8232 H             1 RES     
     124 C           31.2640    19.7936   -20.2519 C             1 RES     
     125 H           30.1748    19.8085   -20.2143 H             1 RES     
     126 H           31.6099    18.7669   -20.3723 H             1 RES     
     127 C           31.7478    20.6409   -21.4434 C             1 RES     
     128 H           32.8371    20.6259   -21.4811 H             1 RES     
     129 H           31.4020    21.6675   -21.3230 H             1 RES     
     130 C           31.1813    20.0588   -22.7518 C             1 RES     
     131 H           30.0920    20.0738   -22.7141 H             1 RES     
     132 H           31.5271    19.0321   -22.8721 H             1 RES     
     133 C           31.6651    20.9061   -23.9433 C             1 RES     
     134 H           32.7543    20.8911   -23.9809 H             1 RES     
     135 H           31.3192    21.9327   -23.8229 H             1 RES     
     136 C           31.0985    20.3240   -25.2516 C             1 RES     
     137 H           30.0093    20.3390   -25.2140 H             1 RES     
     138 H           31.4443    19.2974   -25.3720 H             1 RES     
     139 C           31.5603    21.1328   -26.3890 C             1 RES     
     140 H           30.6978    21.7588   -26.2940 H             1 RES     
     141 H           31.7622    20.9579   -27.4253 H             1 RES     
     142 H           32.4029    21.6151   -25.9378 H             1 RES     
     143 N            5.4772    49.2950     5.0000 N             1 RES     
     144 C            5.9150    50.6946     5.2164 C             1 RES     
     145 H            6.8842    50.9033     4.7159 H             1 RES     
     146 H            6.0653    50.9033     6.2997 H             1 RES     
     147 H            5.1588    51.4144     4.8309 H             1 RES     
     148 C            6.5202    48.3673     5.4991 C             1 RES     
     149 H            6.2268    47.3073     5.3296 H             1 RES     
     150 H            6.6887    48.5056     6.5909 H             1 RES     
     151 H            7.4977    48.5437     5.0024 H             1 RES     
     152 C            4.2379    49.0677     5.7821 C             1 RES     
     153 H            4.4064    49.2435     6.8687 H             1 RES     
     154 H            3.8735    48.0224     5.6630 H             1 RES     
     155 H            3.4237    49.7522     5.4530 H             1 RES     
     156 C            5.1676    49.0397     3.5602 C             1 RES     
     157 H            4.3522    49.7169     3.2192 H             1 RES     
     158 H            4.7994    47.9972     3.4280 H             1 RES     
     159 C            6.3422    49.2272     2.5893 C             1 RES     
     160 H            7.1699    48.5140     2.7771 H             1 RES     
     161 H            6.7130    50.2715     2.5636 H             1 RES     
     162 P            5.6199    50.2411     0.4251 P             1 RES     
     163 O            5.3456    49.9319    -1.1206 O             1 RES     
     164 O            6.0977    48.9031     1.1609 O             1 RES     
     165 O            6.7924    51.3285     0.4782 O             1 RES     
     166 O            4.2316    50.7300     1.0524 O             1 RES     
     167 C            4.9053    51.1928    -1.7698 C             1 RES     
     168 H            5.6876    51.9452    -1.6696 H             1 RES     
     169 H            3.9940    51.5493    -1.2898 H             1 RES     
     170 C            4.9046    49.4532    -3.5864 C             1 RES     
     171 H            5.9452    49.2188    -3.3625 H             1 RES     
     172 H            4.2516    48.8229    -2.9827 H             1 RES     
     173 C            4.6311    50.9337    -3.2629 C             1 RES     
     174 H            3.5904    51.1681    -3.4869 H             1 RES     
     175 C            6.0538    49.5257    -5.4073 C             1 RES     
     176 O            6.9400    49.8564    -4.6210 O             1 RES     
     177 O            4.6428    49.2059    -5.0117 O             1 RES     
     178 C            6.2249    49.3829    -6.8198 C             1 RES     
     179 H            5.5503    50.0629    -7.3401 H             1 RES     
     180 H            5.9953    48.3556    -7.1027 H             1 RES     
     181 C            7.6797    49.7084    -7.2058 C             1 RES     
     182 H            8.3543    49.0284    -6.6855 H             1 RES     
     183 H            7.9092    50.7357    -6.9230 H             1 RES     
     184 C            7.8573    49.5432    -8.7266 C             1 RES     
     185 H            7.1828    50.2232    -9.2469 H             1 RES     
     186 H            7.6278    48.5159    -9.0095 H             1 RES     
     187 C            9.3122    49.8687    -9.1127 C             1 RES     
     188 H            9.9867    49.1887    -8.5924 H             1 RES     
     189 H            9.5417    50.8961    -8.8298 H             1 RES     
     190 C            9.4897    49.7035   -10.6334 C             1 RES     
     191 H            8.8152    50.3835   -11.1537 H             1 RES     
     192 H            9.2602    48.6762   -10.9163 H             1 RES     
     193 C           10.9446    50.0290   -11.0195 C             1 RES     
     194 H           11.6191    49.3490   -10.4992 H             1 RES     
     195 H           11.1741    51.0564   -10.7366 H             1 RES     
     196 C           11.1222    49.8638   -12.5403 C             1 RES     
     197 H           10.4476    50.5438   -13.0606 H             1 RES     
     198 H           10.8927    48.8365   -12.8231 H             1 RES     
     199 C           12.5770    50.1894   -12.9263 C             1 RES     
     200 H           13.2516    49.5094   -12.4060 H             1 RES     
     201 H           12.8065    51.2167   -12.6434 H             1 RES     
     202 C           12.7546    50.0241   -14.4471 C             1 RES     
     203 H           12.0801    50.7041   -14.9674 H             1 RES     
     204 H           12.5251    48.9968   -14.7299 H             1 RES     
     205 C           14.2095    50.3497   -14.8331 C             1 RES     
     206 H           14.8840    49.6697   -14.3128 H             1 RES     
     207 H           14.4390    51.3770   -14.5503 H             1 RES     
     208 C           14.3870    50.1845   -16.3539 C             1 RES     
     209 H           13.7125    50.8645   -16.8742 H             1 RES     
     210 H           14.1575    49.1571   -16.6368 H             1 RES     
     211 C           15.8419    50.5100   -16.7399 C             1 RES     
     212 H           16.5164    49.8300   -16.2196 H             1 RES     
     213 H           16.0714    51.5373   -16.4571 H             1 RES     
     214 C           16.0195    50.3448   -18.2607 C             1 RES     
     215 H           15.3450    51.0248   -18.7810 H             1 RES     
     216 H           15.7900    49.3174   -18.5436 H             1 RES     
     217 C           17.4743    50.6703   -18.6468 C             1 RES     
     218 H           18.1489    49.9903   -18.1265 H             1 RES     
     219 H           17.7039    51.6976   -18.3639 H             1 RES     
     220 C           17.6519    50.5051   -20.1675 C             1 RES     
     221 H           16.9774    51.1851   -20.6878 H             1 RES     
     222 H           17.4224    49.4777   -20.4504 H             1 RES     
     223 C           19.1068    50.8306   -20.5536 C             1 RES     
     224 H           19.7813    50.1506   -20.0333 H             1 RES     
     225 H           19.3363    51.8579   -20.2707 H             1 RES     
     226 C           19.2763    50.6729   -22.0052 C             1 RES     
     227 H           19.5437    49.6467   -21.8625 H             1 RES     
     228 H           19.9035    51.1040   -22.7575 H             1 RES     
     229 H           18.2533    50.7355   -22.3148 H             1 RES     
     230 C            4.8332    51.3254    -5.3317 C             1 RES     
     231 O            3.9024    50.5253    -5.4118 O             1 RES     
     232 O            5.4788    51.7519    -4.0467 O             1 RES     
     233 C            5.4432    51.9849    -6.4442 C             1 RES     
     234 H            6.5031    51.7331    -6.4819 H             1 RES     
     235 H            5.3293    53.0622    -6.3239 H             1 RES     
     236 C            4.7635    51.5401    -7.7526 C             1 RES     
     237 H            3.7037    51.7919    -7.7149 H             1 RES     
     238 H            4.8775    50.4628    -7.8730 H             1 RES     
     239 C            5.4202    52.2617    -8.9441 C             1 RES     
     240 H            6.4801    52.0099    -8.9817 H             1 RES     
     241 H            5.3062    53.3391    -8.8237 H             1 RES     
     242 C            4.7405    51.8170   -10.2525 C             1 RES     
     243 H            3.6807    52.0688   -10.2148 H             1 RES     
     244 H            4.8545    50.7397   -10.3728 H             1 RES     
     245 C            5.3972    52.5386   -11.4439 C             1 RES     
     246 H            6.4570    52.2868   -11.4816 H             1 RES     
     247 H            5.2832    53.6159   -11.3236 H             1 RES     
     248 C            4.7175    52.0939   -12.7523 C             1 RES     
     249 H            3.6576    52.3457   -12.7147 H             1 RES     
     250 H            4.8314    51.0166   -12.8727 H             1 RES     
     251 C            5.3742    52.8155   -13.9438 C             1 RES     
     252 H            6.4340    52.5637   -13.9815 H             1 RES     
     253 H            5.2602    53.8928   -13.8234 H             1 RES     
     254 C            4.6944    52.3708   -15.2522 C             1 RES     
     255 H            3.6346    52.6226   -15.2145 H             1 RES     
     256 H            4.8084    51.2934   -15.3725 H             1 RES     
     257 C            5.3511    53.0924   -16.4437 C             1 RES     
     258 H            6.4110    52.8406   -16.4813 H             1 RES     
     259 H            5.2372    54.1697   -16.3233 H             1 RES     
     260 C            4.6714    52.6476   -17.7520 C             1 RES     
     261 H            3.6116    52.8994   -17.7144 H             1 RES     
     262 H            4.7854    51.5703   -17.8724 H             1 RES     
     263 C            5.3281    53.3692   -18.9435 C             1 RES     
     264 H            6.3879    53.1174   -18.9812 H             1 RES     
     265 H            5.2141    54.4466   -18.8232 H             1 RES     
     266 C            4.6484    52.9245   -20.2519 C             1 RES     
     267 H            3.5885    53.1763   -20.2143 H             1 RES     
     268 H            4.7624    51.8472   -20.3723 H             1 RES     
     269 C            5.3051    53.6461   -21.4434 C             1 RES     
     270 H            6.3649    53.3943   -21.4811 H             1 RES     
     271 H            5.1911    54.7234   -21.3230 H             1 RES     
     272 C            4.6254    53.2014   -22.7518 C             1 RES     
     273 H            3.5655    53.4532   -22.7141 H             1 RES     
     274 H            4.7393    52.1241   -22.8721 H             1 RES     
     275 C            5.2820    53.9230   -23.9433 C             1 RES     
     276 H            6.3419    53.6712   -23.9809 H             1 RES     
     277 H            5.1681    55.0003   -23.8229 H             1 RES     
     278 C            4.6023    53.4783   -25.2516 C             1 RES     
     279 H            3.5425    53.7301   -25.2140 H             1 RES     
     280 H            4.7163    52.4009   -25.3720 H             1 RES     
     281 C            5.2292    54.1671   -26.3890 C             1 RES     
     282 H            4.5237    54.9659   -26.2940 H             1 RES     
     283 H            5.3881    53.9525   -27.4253 H             1 RES     
     284 H            6.1566    54.4543   -25.9378 H             1 RES     
     285 N           43.8178    16.4317     5.0000 N             1 RES     
     286 C           43.8289    17.8981     5.2164 C             1 RES     
     287 H           44.6952    18.3801     4.7159 H             1 RES     
     288 H           43.9118    18.1415     6.2997 H             1 RES     
     289 H           42.8958    18.3664     4.8309 H             1 RES     
     290 C           45.0858    15.8481     5.4991 C             1 RES     
     291 H           45.1139    14.7485     5.3296 H             1 RES     
     292 H           45.2067    16.0294     6.5909 H             1 RES     
     293 H           45.9695    16.3016     5.0024 H             1 RES     
     294 C           42.6985    15.8532     5.7821 C             1 RES     
     295 H           42.8084    16.0704     6.8687 H             1 RES     
     296 H           42.6543    14.7470     5.6630 H             1 RES     
     297 H           41.7201    16.2707     5.4530 H             1 RES     
     298 C           43.5960    16.0972     3.5602 C             1 RES     
     299 H           42.6187    16.5075     3.2192 H             1 RES     
     300 H           43.5474    14.9927     3.4280 H             1 RES     
     301 C           44.6650    16.6188     2.5893 C             1 RES     
     302 H           45.6646    16.1777     2.7771 H             1 RES     
     303 H           44.7155    17.7258     2.5636 H             1 RES     
     304 P           43.6787    17.3783     0.4251 P             1 RES     
     305 O           43.5064    17.0025    -1.1206 O             1 RES     
     306 O           44.5255    16.2375     1.1609 O             1 RES     
     307 O           44.4836    18.7601     0.4782 O             1 RES     
     308 O           42.2082    17.4415     1.0524 O             1 RES     
     309 C           42.7179    18.0805    -1.7698 C             1 RES     
     310 H           43.2470    19.0282    -1.6696 H             1 RES     
     311 H           41.7422    18.1561    -1.2898 H             1 RES     
     312 C           43.2239    16.4161    -3.5864 C             1 RES     
     313 H           44.2877    16.4951    -3.3625 H             1 RES     
     314 H           42.7828    15.6230    -2.9827 H             1 RES     
     315 C           42.5310    17.7528    -3.2629 C             1 RES     
     316 H           41.4671    17.6738    -3.4869 H             1 RES     
     317 C           44.3022    16.8204    -5.4073 C             1 RES     
     318 O           45.0536    17.3948    -4.6210 O             1 RES     
     319 O           43.0455    16.1033    -5.0117 O             1 RES     
     320 C           44.5074    16.7335    -6.8198 C             1 RES     
     321 H           43.6640    17.1875    -7.3401 H             1 RES     
     322 H           44.5871    15.6839    -7.1027 H             1 RES     
     323 C           45.8043    17.4688    -7.2058 C             1 RES     
     324 H           46.6477    17.0148    -6.6855 H             1 RES     
     325 H           45.7246    18.5184    -6.9230 H             1 RES     
     326 C           46.0223    17.3625    -8.7266 C             1 RES     
     327 H           45.1790    17.8165    -9.2469 H             1 RES     
     328 H           46.1021    16.3128    -9.0095 H             1 RES     
     329 C           47.3193    18.0977    -9.1127 C             1 RES     
     330 H           48.1626    17.6437    -8.5924 H             1 RES     
     331 H           47.2395    19.1473    -8.8298 H             1 RES     
     332 C           47.5373    17.9914   -10.6334 C             1 RES     
     333 H           46.6939    18.4454   -11.1537 H             1 RES     
     334 H           47.6170    16.9418   -10.9163 H             1 RES     
     335 C           48.8342    18.7266   -11.0195 C             1 RES     
     336 H           49.6776    18.2726   -10.4992 H             1 RES     
     337 H           48.7545    19.7763   -10.7366 H             1 RES     
     338 C           49.0522    18.6203   -12.5403 C             1 RES     
     339 H           48.2088    19.0743   -13.0606 H             1 RES     
     340 H           49.1319    17.5707   -12.8231 H             1 RES     
     341 C           50.3491    19.3556   -12.9263 C             1 RES     
     342 H           51.1925    18.9016   -12.4060 H             1 RES     
     343 H           50.2694    20.4052   -12.6434 H             1 RES     
     344 C           50.5671    19.2493   -14.4471 C             1 RES     
     345 H           49.7237    19.7032   -14.9674 H             1 RES     
     346 H           50.6468    18.1996   -14.7299 H             1 RES     
     347 C           51.8640    19.9845   -14.8331 C             1 RES     
     348 H           52.7074    19.5305   -14.3128 H             1 RES     
     349 H           51.7843    21.0341   -14.5503 H             1 RES     
     350 C           52.0820    19.8782   -16.3539 C             1 RES     
     351 H           51.2387    20.3322   -16.8742 H             1 RES     
     352 H           52.1618    18.8286   -16.6368 H             1 RES     
     353 C           53.3790    20.6134   -16.7399 C             1 RES     
     354 H           54.2223    20.1594   -16.2196 H             1 RES     
     355 H           53.2992    21.6631   -16.4571 H             1 RES     
     356 C           53.5970    20.5071   -18.2607 C             1 RES     
     357 H           52.7536    20.9611   -18.7810 H             1 RES     
     358 H           53.6767    19.4575   -18.5436 H             1 RES     
     359 C           54.8939    21.2424   -18.6468 C             1 RES     
     360 H           55.7373    20.7884   -18.1265 H             1 RES     
     361 H           54.8142    22.2920   -18.3639 H             1 RES     
     362 C           55.1119    21.1360   -20.1675 C             1 RES     
     363 H           54.2685    21.5900   -20.6878 H             1 RES     
     364 H           55.1916    20.0864   -20.4504 H             1 RES     
     365 C           56.4088    21.8713   -20.5536 C             1 RES     
     366 H           57.2522    21.4173   -20.0333 H             1 RES     
     367 H           56.3291    22.9209   -20.2707 H             1 RES     
     368 C           56.6169    21.7698   -22.0052 C             1 RES     
     369 H           57.1717    20.8661   -21.8625 H             1 RES     
     370 H           57.0913    22.3649   -22.7575 H             1 RES     
     371 H           55.6200    21.5316   -22.3148 H             1 RES     
     372 C           42.6102    18.1863    -5.3317 C             1 RES     
     373 O           41.9528    17.1498    -5.4118 O             1 RES     
     374 O           43.1035    18.7824    -4.0467 O             1 RES     
     375 C           43.0017    18.9949    -6.4442 C             1 RES     
     376 H           44.0889    19.0628    -6.4819 H             1 RES     
     377 H           42.5788    19.9923    -6.3239 H             1 RES     
     378 C           42.4810    18.3715    -7.7526 C             1 RES     
     379 H           41.3938    18.3036    -7.7149 H             1 RES     
     380 H           42.9039    17.3741    -7.8730 H             1 RES     
     381 C           42.8990    19.2531    -8.9441 C             1 RES     
     382 H           43.9862    19.3210    -8.9817 H             1 RES     
     383 H           42.4761    20.2505    -8.8237 H             1 RES     
     384 C           42.3783    18.6296   -10.2525 C             1 RES     
     385 H           41.2911    18.5618   -10.2148 H             1 RES     
     386 H           42.8012    17.6323   -10.3728 H             1 RES     
     387 C           42.7963    19.5113   -11.4439 C             1 RES     
     388 H           43.8835    19.5791   -11.4816 H             1 RES     
     389 H           42.3734    20.5086   -11.3236 H             1 RES     
     390 C           42.2756    18.8878   -12.7523 C             1 RES     
     391 H           41.1884    18.8199   -12.7147 H             1 RES     
     392 H           42.6985    17.8904   -12.8727 H             1 RES     
     393 C           42.6936    19.7694   -13.9438 C             1 RES     
     394 H           43.7808    19.8373   -13.9815 H             1 RES     
     395 H           42.2707    20.7668   -13.8234 H             1 RES     
     396 C           42.1729    19.1460   -15.2522 C             1 RES     
     397 H           41.0857    19.0781   -15.2145 H             1 RES     
     398 H           42.5958    18.1486   -15.3725 H             1 RES     
     399 C           42.5909    20.0276   -16.4437 C             1 RES     
     400 H           43.6781    20.0954   -16.4813 H             1 RES     
     401 H           42.1680    21.0250   -16.3233 H             1 RES     
     402 C           42.0702    19.4041   -17.7520 C             1 RES     
     403 H           40.9830    19.3362   -17.7144 H             1 RES     
     404 H           42.4931    18.4067   -17.8724 H             1 RES     
     405 C           42.4882    20.2857   -18.9435 C             1 RES     
     406 H           43.5754    20.3536   -18.9812 H             1 RES     
     407 H           42.0653    21.2831   -18.8232 H             1 RES     
     408 C           41.9676    19.6623   -20.2519 C             1 RES     
     409 H           40.8803    19.5944   -20.2143 H             1 RES     
     410 H           42.3904    18.6649   -20.3723 H             1 RES     
     411 C           42.3855    20.5439   -21.4434 C             1 RES     
     412 H           43.4728    20.6118   -21.4811 H             1 RES     
     413 H           41.9626    21.5413   -21.3230 H             1 RES     
     414 C           41.8649    19.9204   -22.7518 C             1 RES     
     415 H           40.7776    19.8525   -22.7141 H             1 RES     
     416 H           42.2877    18.9230   -22.8721 H             1 RES     
     417 C           42.2828    20.8020   -23.9433 C             1 RES     
     418 H           43.3701    20.8699   -23.9809 H             1 RES     
     419 H           41.8600    21.7994   -23.8229 H             1 RES     
     420 C           41.7622    20.1786   -25.2516 C             1 RES     
     421 H           40.6749    20.1107   -25.2140 H             1 RES     
     422 H           42.1850    19.1812   -25.3720 H             1 RES     
     423 C           42.1611    21.0201   -26.3890 C             1 RES     
     424 H           41.2535    21.5788   -26.2940 H             1 RES     
     425 H           42.3757    20.8611   -27.4253 H             1 RES     
     426 H           42.9647    21.5651   -25.9378 H             1 RES     
     427 N           43.8178    38.3406     5.0000 N             1 RES     
     428 C           44.0584    39.7872     5.2164 C             1 RES     
     429 H           44.9895    40.1276     4.7159 H             1 RES     
     430 H           44.1785    40.0146     6.2997 H             1 RES     
     431 H           43.2102    40.3958     4.8309 H             1 RES     
     432 C           44.9787    37.5656     5.4991 C             1 RES     
     433 H           44.8343    36.4752     5.3296 H             1 RES     
     434 H           45.1266    37.7258     6.5909 H             1 RES     
     435 H           45.9226    37.8751     5.0024 H             1 RES     
     436 C           42.6217    37.9445     5.7821 C             1 RES     
     437 H           42.7643    38.1418     6.8687 H             1 RES     
     438 H           42.4049    36.8589     5.6630 H             1 RES     
     439 H           41.7208    38.5101     5.4530 H             1 RES     
     440 C           43.5464    38.0450     3.5602 C             1 RES     
     441 H           42.6454    38.6033     3.2192 H             1 RES     
     442 H           43.3254    36.9617     3.4280 H             1 RES     
     443 C           44.6839    38.3927     2.5893 C             1 RES     
     444 H           45.6020    37.8005     2.7771 H             1 RES     
     445 H           44.9071    39.4782     2.5636 H             1 RES     
     446 P           43.8287    39.2973     0.4251 P             1 RES     
     447 O           43.5996    38.9532    -1.1206 O             1 RES     
     448 O           44.4864    38.0380     1.1609 O             1 RES     
     449 O           44.8400    40.5360     0.4782 O             1 RES     
     450 O           42.3862    39.5901     1.0524 O             1 RES     
     451 C           42.9897    40.1413    -1.7698 C             1 RES     
     452 H           43.6607    40.9944    -1.6696 H             1 RES     
     453 H           42.0378    40.3688    -1.2898 H             1 RES     
     454 C           43.2288    38.4182    -3.5864 C             1 RES     
     455 H           44.2919    38.3296    -3.3625 H             1 RES     
     456 H           42.6690    37.7040    -2.9827 H             1 RES     
     457 C           42.7537    39.8469    -3.2629 C             1 RES     
     458 H           41.6907    39.9355    -3.4869 H             1 RES     
     459 C           44.3571    38.6486    -5.4073 C             1 RES     
     460 O           45.1892    39.0983    -4.6210 O             1 RES     
     461 O           43.0036    38.1372    -5.0117 O             1 RES     
     462 C           44.5462    38.5307    -6.8198 C             1 RES     
     463 H           43.7843    39.1112    -7.3401 H             1 RES     
     464 H           44.4605    37.4815    -7.1027 H             1 RES     
     465 C           45.9422    39.0538    -7.2058 C             1 RES     
     466 H           46.7041    38.4733    -6.6855 H             1 RES     
     467 H           46.0279    40.1029    -6.9230 H             1 RES     
     468 C           46.1409    38.9146    -8.7266 C             1 RES     
     469 H           45.3790    39.4951    -9.2469 H             1 RES     
     470 H           46.0553    37.8655    -9.0095 H             1 RES     
     471 C           47.5370    39.4377    -9.1127 C             1 RES     
     472 H           48.2988    38.8572    -8.5924 H             1 RES     
     473 H           47.6226    40.4868    -8.8298 H             1 RES     
     474 C           47.7356    39.2985   -10.6334 C             1 RES     
     475 H           46.9738    39.8790   -11.1537 H             1 RES     
     476 H           47.6500    38.2494   -10.9163 H             1 RES     
     477 C           49.1317    39.8216   -11.0195 C             1 RES     
     478 H           49.8936    39.2411   -10.4992 H             1 RES     
     479 H           49.2173    40.8708   -10.7366 H             1 RES     
     480 C           49.3304    39.6825   -12.5403 C             1 RES     
     481 H           48.5685    40.2629   -13.0606 H             1 RES     
     482 H           49.2447    38.6333   -12.8231 H             1 RES     
     483 C           50.7264    40.2055   -12.9263 C             1 RES     
     484 H           51.4883    39.6250   -12.4060 H             1 RES     
     485 H           50.8121    41.2547   -12.6434 H             1 RES     
     486 C           50.9251    40.0664   -14.4471 C             1 RES     
     487 H           50.1632    40.6468   -14.9674 H             1 RES     
     488 H           50.8395    39.0172   -14.7299 H             1 RES     
     489 C           52.3212    40.5894   -14.8331 C             1 RES     
     490 H           53.0830    40.0089   -14.3128 H             1 RES     
     491 H           52.4068    41.6386   -14.5503 H             1 RES     
     492 C           52.5198    40.4503   -16.3539 C             1 RES     
     493 H           51.7580    41.0308   -16.8742 H             1 RES     
     494 H           52.4342    39.4011   -16.6368 H             1 RES     
     495 C           53.9159    40.9733   -16.7399 C             1 RES     
     496 H           54.6778    40.3929   -16.2196 H             1 RES     
     497 H           54.0015    42.0225   -16.4571 H             1 RES     
     498 C           54.1146    40.8342   -18.2607 C             1 RES     
     499 H           53.3527    41.4147   -18.7810 H             1 RES     
     500 H           54.0289    39.7850   -18.5436 H             1 RES     
     501 C           55.5106    41.3572   -18.6468 C             1 RES     
     502 H           56.2725    40.7768   -18.1265 H             1 RES     
     503 H           55.5963    42.4064   -18.3639 H             1 RES     
     504 C           55.7093    41.2181   -20.1675 C             1 RES     
     505 H           54.9474    41.7986   -20.6878 H             1 RES     
     506 H           55.6236    40.1689   -20.4504 H             1 RES     
     507 C           57.1053    41.7412   -20.5536 C             1 RES     
     508 H           57.8672    41.1607   -20.0333 H             1 RES     
     509 H           57.1910    42.7903   -20.2707 H             1 RES     
     510 C           57.2950    41.6083   -22.0052 C             1 RES     
     511 H           57.7014    40.6289   -21.8625 H             1 RES     
     512 H           57.8567    42.1218   -22.7575 H             1 RES     
     513 H           56.2731    41.5292   -22.3148 H             1 RES     
     514 C           42.8999    40.2627    -5.3317 C             1 RES     
     515 O           42.0883    39.3419    -5.4118 O             1 RES     
     516 O           43.4805    40.7741    -4.0467 O             1 RES     
     517 C           43.4132    41.0000    -6.4442 C             1 RES     
     518 H           44.4976    40.8968    -6.4819 H             1 RES     
     519 H           43.1517    42.0513    -6.3239 H             1 RES     
     520 C           42.8013    40.4658    -7.7526 C             1 RES     
     521 H           41.7169    40.5690    -7.7149 H             1 RES     
     522 H           43.0628    39.4145    -7.8730 H             1 RES     
     523 C           43.3522    41.2711    -8.9441 C             1 RES     
     524 H           44.4366    41.1678    -8.9817 H             1 RES     
     525 H           43.0907    42.3224    -8.8237 H             1 RES     
     526 C           42.7403    40.7369   -10.2525 C             1 RES     
     527 H           41.6559    40.8401   -10.2148 H             1 RES     
     528 H           43.0018    39.6856   -10.3728 H             1 RES     
     529 C           43.2912    41.5421   -11.4439 C             1 RES     
     530 H           44.3756    41.4389   -11.4816 H             1 RES     
     531 H           43.0297    42.5934   -11.3236 H             1 RES     
     532 C           42.6793    41.0079   -12.7523 C             1 RES     
     533 H           41.5949    41.1112   -12.7147 H             1 RES     
     534 H           42.9408    39.9566   -12.8727 H             1 RES     
     535 C           43.2302    41.8132   -13.9438 C             1 RES     
     536 H           44.3146    41.7100   -13.9815 H             1 RES     
     537 H           42.9687    42.8645   -13.8234 H             1 RES     
     538 C           42.6183    41.2790   -15.2522 C             1 RES     
     539 H           41.5339    41.3822   -15.2145 H             1 RES     
     540 H           42.8798    40.2277   -15.3725 H             1 RES     
     541 C           43.1692    42.0842   -16.4437 C             1 RES     
     542 H           44.2537    41.9810   -16.4813 H             1 RES     
     543 H           42.9078    43.1355   -16.3233 H             1 RES     
     544 C           42.5573    41.5500   -17.7520 C             1 RES     
     545 H           41.4729    41.6533   -17.7144 H             1 RES     
     546 H           42.8188    40.4987   -17.8724 H             1 RES     
     547 C           43.1082    42.3553   -18.9435 C             1 RES     
     548 H           44.1927    42.2521   -18.9812 H             1 RES     
     549 H           42.8468    43.4066   -18.8232 H             1 RES     
     550 C           42.4963    41.8211   -20.2519 C             1 RES     
     551 H           41.4119    41.9243   -20.2143 H             1 RES     
     552 H           42.7578    40.7698   -20.3723 H             1 RES     
     553 C           43.0472    42.6263   -21.4434 C             1 RES     
     554 H           44.1317    42.5231   -21.4811 H             1 RES     
     555 H           42.7858    43.6777   -21.3230 H             1 RES     
     556 C           42.4353    42.0921   -22.7518 C             1 RES     
     557 H           41.3509    42.1954   -22.7141 H             1 RES     
     558 H           42.6968    41.0408   -22.8721 H             1 RES     
     559 C           42.9862    42.8974   -23.9433 C             1 RES     
     560 H           44.0707    42.7942   -23.9809 H             1 RES     
     561 H           42.7248    43.9487   -23.8229 H             1 RES     
     562 C           42.3743    42.3632   -25.2516 C             1 RES     
     563 H           41.2899    42.4664   -25.2140 H             1 RES     
     564 H           42.6358    41.3119   -25.3720 H             1 RES     
     565 C           42.9002    43.1318   -26.3890 C             1 RES     
     566 H           42.0913    43.8258   -26.2940 H             1 RES     
     567 H           43.0872    42.9412   -27.4253 H             1 RES     
     568 H           43.7792    43.5443   -25.9378 H             1 RES     
     569 N           43.8178    43.8178     5.0000 N             1 RES     
     570 C           43.8412    45.2841     5.2164 C             1 RES     
     571 H           44.7115    45.7588     4.7159 H             1 RES     
     572 H           43.9262    45.5268     6.2997 H             1 RES     
     573 H           42.9121    45.7601     4.8309 H             1 RES     
     574 C           45.0808    43.2236     5.4991 C             1 RES     
     575 H           45.0998    42.1238     5.3296 H             1 RES     
     576 H           45.2033    43.4039     6.5909 H             1 RES     
     577 H           45.9683    43.6697     5.0024 H             1 RES     
     578 C           42.6937    43.2487     5.7821 C             1 RES     
     579 H           42.8054    43.4650     6.8687 H             1 RES     
     580 H           42.6403    42.1430     5.6630 H             1 RES     
     581 H           41.7189    43.6744     5.4530 H             1 RES     
     582 C           43.5932    43.4852     3.5602 C             1 RES     
     583 H           42.6194    43.9037     3.2192 H             1 RES     
     584 H           43.5354    42.3811     3.4280 H             1 RES     
     585 C           44.6666    43.9978     2.5893 C             1 RES     
     586 H           45.6624    43.5483     2.7771 H             1 RES     
     587 H           44.7263    45.1044     2.5636 H             1 RES     
     588 P           43.6866    44.7656     0.4251 P             1 RES     
     589 O           43.5112    44.3913    -1.1206 O             1 RES     
     590 O           44.5239    43.6177     1.1609 O             1 RES     
     591 O           44.5031    46.1406     0.4782 O             1 RES     
     592 O           42.2167    44.8411     1.0524 O             1 RES     
     593 C           42.7317    45.4758    -1.7698 C             1 RES     
     594 H           43.2688    46.4190    -1.6696 H             1 RES     
     595 H           41.7567    45.5595    -1.2898 H             1 RES     
     596 C           43.2238    43.8072    -3.5864 C             1 RES     
     597 H           44.2882    43.8773    -3.3625 H             1 RES     
     598 H           42.7761    43.0178    -2.9827 H             1 RES     
     599 C           42.5421    45.1497    -3.2629 C             1 RES     
     600 H           41.4776    45.0796    -3.4869 H             1 RES     
     601 C           44.3054    44.2024    -5.4073 C             1 RES     
     602 O           45.0616    44.7705    -4.6210 O             1 RES     
     603 O           43.0428    43.4959    -5.0117 O             1 RES     
     604 C           44.5099    44.1139    -6.8198 C             1 RES     
     605 H           43.6704    44.5749    -7.3401 H             1 RES     
     606 H           44.5808    43.0636    -7.1027 H             1 RES     
     607 C           45.8130    44.8382    -7.2058 C             1 RES     
     608 H           46.6525    44.3772    -6.6855 H             1 RES     
     609 H           45.7420    45.8885    -6.9230 H             1 RES     
     610 C           46.0301    44.7301    -8.7266 C             1 RES     
     611 H           45.1905    45.1911    -9.2469 H             1 RES     
     612 H           46.1010    43.6798    -9.0095 H             1 RES     
     613 C           47.3331    45.4544    -9.1127 C             1 RES     
     614 H           48.1726    44.9934    -8.5924 H             1 RES     
     615 H           47.2622    46.5047    -8.8298 H             1 RES     
     616 C           47.5502    45.3463   -10.6334 C             1 RES     
     617 H           46.7107    45.8073   -11.1537 H             1 RES     
     618 H           47.6211    44.2960   -10.9163 H             1 RES     
     619 C           48.8533    46.0706   -11.0195 C             1 RES     
     620 H           49.6928    45.6096   -10.4992 H             1 RES     
     621 H           48.7823    47.1209   -10.7366 H             1 RES     
     622 C           49.0704    45.9625   -12.5403 C             1 RES     
     623 H           48.2308    46.4235   -13.0606 H             1 RES     
     624 H           49.1413    44.9122   -12.8231 H             1 RES     
     625 C           50.3734    46.6868   -12.9263 C             1 RES     
     626 H           51.2129    46.2258   -12.4060 H             1 RES     
     627 H           50.3025    47.7371   -12.6434 H             1 RES     
     628 C           50.5905    46.5787   -14.4471 C             1 RES     
     629 H           49.7510    47.0397   -14.9674 H             1 RES     
     630 H           50.6614    45.5284   -14.7299 H             1 RES     
     631 C           51.8935    47.3030   -14.8331 C             1 RES     
     632 H           52.7331    46.8420   -14.3128 H             1 RES     
     633 H           51.8226    48.3533   -14.5503 H             1 RES     
     634 C           52.1106    47.1949   -16.3539 C             1 RES     
     635 H           51.2711    47.6559   -16.8742 H             1 RES     
     636 H           52.1816    46.1446   -16.6368 H             1 RES     
     637 C           53.4137    47.9192   -16.7399 C             1 RES     
     638 H           54.2532    47.4582   -16.2196 H             1 RES     
     639 H           53.3428    48.9695   -16.4571 H             1 RES     
     640 C           53.6308    47.8111   -18.2607 C             1 RES     
     641 H           52.7913    48.2721   -18.7810 H             1 RES     
     642 H           53.7017    46.7608   -18.5436 H             1 RES     
     643 C           54.9338    48.5354   -18.6468 C             1 RES     
     644 H           55.7734    48.0744   -18.1265 H             1 RES     
     645 H           54.8629    49.5857   -18.3639 H             1 RES     
     646 C           55.1509    48.4273   -20.1675 C             1 RES     
     647 H           54.3114    48.8884   -20.6878 H             1 RES     
     648 H           55.2219    47.3770   -20.4504 H             1 RES     
     649 C           56.4540    49.1516   -20.5536 C             1 RES     
     650 H           57.2935    48.6906   -20.0333 H             1 RES     
     651 H           56.3830    50.2019   -20.2707 H             1 RES     
     652 C           56.6612    49.0484   -22.0052 C             1 RES     
     653 H           57.2084    48.1401   -21.8625 H             1 RES     
     654 H           57.1406    49.6396   -22.7575 H             1 RES     
     655 H           55.6624    48.8186   -22.3148 H             1 RES     
     656 C           42.6249    45.5825    -5.3317 C             1 RES     
     657 O           41.9589    44.5516    -5.4118 O             1 RES     
     658 O           43.1233    46.1744    -4.0467 O             1 RES     
     659 C           43.0232    46.3878    -6.4442 C             1 RES     
     660 H           44.1110    46.4466    -6.4819 H             1 RES     
     661 H           42.6087    47.3887    -6.3239 H             1 RES     
     662 C           42.4973    45.7688    -7.7526 C             1 RES     
     663 H           41.4096    45.7100    -7.7149 H             1 RES     
     664 H           42.9118    44.7679    -7.8730 H             1 RES     
     665 C           42.9227    46.6468    -8.9441 C             1 RES     
     666 H           44.0104    46.7056    -8.9817 H             1 RES     
     667 H           42.5082    47.6477    -8.8237 H             1 RES     
     668 C           42.3968    46.0278   -10.2525 C             1 RES     
     669 H           41.3090    45.9690   -10.2148 H             1 RES     
     670 H           42.8113    45.0269   -10.3728 H             1 RES     
     671 C           42.8221    46.9058   -11.4439 C             1 RES     
     672 H           43.9099    46.9646   -11.4816 H             1 RES     
     673 H           42.4077    47.9067   -11.3236 H             1 RES     
     674 C           42.2963    46.2868   -12.7523 C             1 RES     
     675 H           41.2085    46.2280   -12.7147 H             1 RES     
     676 H           42.7108    45.2859   -12.8727 H             1 RES     
     677 C           42.7216    47.1648   -13.9438 C             1 RES     
     678 H           43.8094    47.2236   -13.9815 H             1 RES     
     679 H           42.3071    48.1657   -13.8234 H             1 RES     
     680 C           42.1958    46.5458   -15.2522 C             1 RES     
     681 H           41.1080    46.4870   -15.2145 H             1 RES     
     682 H           42.6103    45.5449   -15.3725 H             1 RES     
     683 C           42.6211    47.4239   -16.4437 C             1 RES     
     684 H           43.7089    47.4826   -16.4813 H             1 RES     
     685 H           42.2066    48.4248   -16.3233 H             1 RES     
     686 C           42.0952    46.8048   -17.7520 C             1 RES     
     687 H           41.0075    46.7460   -17.7144 H             1 RES     
     688 H           42.5097    45.8039   -17.8724 H             1 RES     
     689 C           42.5206    47.6829   -18.9435 C             1 RES     
     690 H           43.6083    47.7416   -18.9812 H             1 RES     
     691 H           42.1061    48.6838   -18.8232 H             1 RES     
     692 C           41.9947    47.0638   -20.2519 C             1 RES     
     693 H           40.9069    47.0050   -20.2143 H             1 RES     
     694 H           42.4092    46.0629   -20.3723 H             1 RES     
     695 C           42.4201    47.9419   -21.4434 C             1 RES     
     696 H           43.5078    48.0006   -21.4811 H             1 RES     
     697 H           42.0056    48.9428   -21.3230 H             1 RES     
     698 C           41.8942    47.3228   -22.7518 C             1 RES     
     699 H           40.8064    47.2640   -22.7141 H             1 RES     
     700 H           42.3087    46.3219   -22.8721 H             1 RES     
     701 C           42.3195    48.2009   -23.9433 C             1 RES     
     702 H           43.4073    48.2596   -23.9809 H             1 RES     
     703 H           41.9050    49.2018   -23.8229 H             1 RES     
     704 C           41.7937    47.5818   -25.2516 C             1 RES     
     705 H           40.7059    47.5231   -25.2140 H             1 RES     
     706 H           42.2082    46.5809   -25.3720 H             1 RES     
     707 C           42.1997    48.4200   -26.3890 C             1 RES     
     708 H           41.2968    48.9862   -26.2940 H             1 RES     
     709 H           42.4129    48.2592   -27.4253 H             1 RES     
     710 H           43.0078    48.9582   -25.9378 H             1 RES     
     711 N           10.9545    43.8178     5.0000 N             1 RES     
     712 C           11.1227    45.2746     5.2164 C             1 RES     
     713 H           12.0358    45.6609     4.7159 H             1 RES     
     714 H           11.2314    45.5077     6.2997 H             1 RES     
     715 H           10.2453    45.8402     4.8309 H             1 RES     
     716 C           12.1525    43.1015     5.4991 C             1 RES     
     717 H           12.0625    42.0053     5.3296 H             1 RES     
     718 H           12.2922    43.2689     6.5909 H             1 RES     
     719 H           13.0798    43.4576     5.0024 H             1 RES     
     720 C            9.7795    43.3627     5.7821 C             1 RES     
     721 H            9.9122    43.5669     6.8687 H             1 RES     
     722 H            9.6170    42.2677     5.6630 H             1 RES     
     723 H            8.8516    43.8828     5.4530 H             1 RES     
     724 C           10.6981    43.5091     3.5602 C             1 RES     
     725 H            9.7704    44.0218     3.2192 H             1 RES     
     726 H           10.5313    42.4161     3.4280 H             1 RES     
     727 C           11.8169    43.9129     2.5893 C             1 RES     
     728 H           12.7633    43.3672     2.7771 H             1 RES     
     729 H           11.9858    45.0082     2.5636 H             1 RES     
     730 P           10.9177    44.7739     0.4251 P             1 RES     
     731 O           10.7061    44.4188    -1.1206 O             1 RES     
     732 O           11.6372    43.5488     1.1609 O             1 RES     
     733 O           11.8662    46.0614     0.4782 O             1 RES     
     734 O            9.4625    44.9945     1.0524 O             1 RES     
     735 C           10.0377    45.5751    -1.7698 C             1 RES     
     736 H           10.6655    46.4605    -1.6696 H             1 RES     
     737 H            9.0758    45.7549    -1.2898 H             1 RES     
     738 C           10.3623    43.8660    -3.5864 C             1 RES     
     739 H           11.4285    43.8304    -3.3625 H             1 RES     
     740 H            9.8387    43.1248    -2.9827 H             1 RES     
     741 C            9.8168    45.2693    -3.2629 C             1 RES     
     742 H            8.7506    45.3050    -3.4869 H             1 RES     
     743 C           11.4777    44.1523    -5.4073 C             1 RES     
     744 O           12.2864    44.6428    -4.6210 O             1 RES     
     745 O           10.1514    43.5742    -5.0117 O             1 RES     
     746 C           11.6725    44.0439    -6.8198 C             1 RES     
     747 H           10.8827    44.5858    -7.3401 H             1 RES     
     748 H           11.6391    42.9918    -7.1027 H             1 RES     
     749 C           13.0408    44.6358    -7.2058 C             1 RES     
     750 H           13.8306    44.0940    -6.6855 H             1 RES     
     751 H           13.0741    45.6879    -6.9230 H             1 RES     
     752 C           13.2461    44.5067    -8.7266 C             1 RES     
     753 H           12.4563    45.0486    -9.2469 H             1 RES     
     754 H           13.2128    43.4546    -9.0095 H             1 RES     
     755 C           14.6144    45.0986    -9.1127 C             1 RES     
     756 H           15.4042    44.5568    -8.5924 H             1 RES     
     757 H           14.6478    46.1507    -8.8298 H             1 RES     
     758 C           14.8198    44.9695   -10.6334 C             1 RES     
     759 H           14.0300    45.5114   -11.1537 H             1 RES     
     760 H           14.7864    43.9174   -10.9163 H             1 RES     
     761 C           16.1881    45.5614   -11.0195 C             1 RES     
     762 H           16.9779    45.0195   -10.4992 H             1 RES     
     763 H           16.2214    46.6135   -10.7366 H             1 RES     
     764 C           16.3934    45.4323   -12.5403 C             1 RES     
     765 H           15.6036    45.9741   -13.0606 H             1 RES     
     766 H           16.3601    44.3802   -12.8231 H             1 RES     
     767 C           17.7617    46.0242   -12.9263 C             1 RES     
     768 H           18.5515    45.4823   -12.4060 H             1 RES     
     769 H           17.7951    47.0763   -12.6434 H             1 RES     
     770 C           17.9671    45.8951   -14.4471 C             1 RES     
     771 H           17.1773    46.4369   -14.9674 H             1 RES     
     772 H           17.9337    44.8430   -14.7299 H             1 RES     
     773 C           19.3354    46.4870   -14.8331 C             1 RES     
     774 H           20.1252    45.9451   -14.3128 H             1 RES     
     775 H           19.3687    47.5391   -14.5503 H             1 RES     
     776 C           19.5407    46.3579   -16.3539 C             1 RES     
     777 H           18.7509    46.8997   -16.8742 H             1 RES     
     778 H           19.5074    45.3057   -16.6368 H             1 RES     
     779 C           20.9090    46.9497   -16.7399 C             1 RES     
     780 H           21.6988    46.4079   -16.2196 H             1 RES     
     781 H           20.9424    48.0019   -16.4571 H             1 RES     
     782 C           21.1144    46.8207   -18.2607 C             1 RES     
     783 H           20.3246    47.3625   -18.7810 H             1 RES     
     784 H           21.0810    45.7685   -18.5436 H             1 RES     
     785 C           22.4827    47.4125   -18.6468 C             1 RES     
     786 H           23.2725    46.8707   -18.1265 H             1 RES     
     787 H           22.5160    48.4647   -18.3639 H             1 RES     
     788 C           22.6880    47.2835   -20.1675 C             1 RES     
     789 H           21.8982    47.8253   -20.6878 H             1 RES     
     790 H           22.6547    46.2313   -20.4504 H             1 RES     
     791 C           24.0563    47.8753   -20.5536 C             1 RES     
     792 H           24.8461    47.3335   -20.0333 H             1 RES     
     793 H           24.0897    48.9275   -20.2707 H             1 RES     
     794 C           24.2523    47.7521   -22.0052 C             1 RES     
     795 H           24.7070    46.7941   -21.8625 H             1 RES     
     796 H           24.7878    48.2929   -22.7575 H             1 RES     
     797 H           23.2357    47.6222   -22.3148 H             1 RES     
     798 C            9.9420    45.6919    -5.3317 C             1 RES     
     799 O            9.1773    44.7319    -5.4118 O             1 RES     
     800 O           10.4965    46.2316    -4.0467 O             1 RES     
     801 C           10.4180    46.4538    -6.4442 C             1 RES     
     802 H           11.5062    46.4047    -6.4819 H             1 RES     
     803 H           10.1046    47.4908    -6.3239 H             1 RES     
     804 C            9.8335    45.8898    -7.7526 C             1 RES     
     805 H            8.7452    45.9390    -7.7149 H             1 RES     
     806 H           10.1469    44.8528    -7.8730 H             1 RES     
     807 C           10.3436    46.7215    -8.9441 C             1 RES     
     808 H           11.4318    46.6724    -8.9817 H             1 RES     
     809 H           10.0302    47.7585    -8.8237 H             1 RES     
     810 C            9.7591    46.1575   -10.2525 C             1 RES     
     811 H            8.6708    46.2067   -10.2148 H             1 RES     
     812 H           10.0725    45.1205   -10.3728 H             1 RES     
     813 C           10.2692    46.9892   -11.4439 C             1 RES     
     814 H           11.3574    46.9400   -11.4816 H             1 RES     
     815 H            9.9558    48.0262   -11.3236 H             1 RES     
     816 C            9.6847    46.4252   -12.7523 C             1 RES     
     817 H            8.5964    46.4743   -12.7147 H             1 RES     
     818 H            9.9981    45.3882   -12.8727 H             1 RES     
     819 C           10.1948    47.2569   -13.9438 C             1 RES     
     820 H           11.2830    47.2077   -13.9815 H             1 RES     
     821 H            9.8813    48.2939   -13.8234 H             1 RES     
     822 C            9.6102    46.6929   -15.2522 C             1 RES     
     823 H            8.5220    46.7420   -15.2145 H             1 RES     
     824 H            9.9237    45.6559   -15.3725 H             1 RES     
     825 C           10.1204    47.5246   -16.4437 C             1 RES     
     826 H           11.2086    47.4754   -16.4813 H             1 RES     
     827 H            9.8069    48.5616   -16.3233 H             1 RES     
     828 C            9.5358    46.9606   -17.7520 C             1 RES     
     829 H            8.4476    47.0097   -17.7144 H             1 RES     
     830 H            9.8493    45.9236   -17.8724 H             1 RES     
     831 C           10.0460    47.7922   -18.9435 C             1 RES     
     832 H           11.1342    47.7431   -18.9812 H             1 RES     
     833 H            9.7325    48.8292   -18.8232 H             1 RES     
     834 C            9.4614    47.2282   -20.2519 C             1 RES     
     835 H            8.3732    47.2774   -20.2143 H             1 RES     
     836 H            9.7749    46.1912   -20.3723 H             1 RES     
     837 C            9.9716    48.0599   -21.4434 C             1 RES     
     838 H           11.0598    48.0108   -21.4811 H             1 RES     
     839 H            9.6581    49.0969   -21.3230 H             1 RES     
     840 C            9.3870    47.4959   -22.7518 C             1 RES     
     841 H            8.2988    47.5451   -22.7141 H             1 RES     
     842 H            9.7005    46.4589   -22.8721 H             1 RES     
     843 C            9.8972    48.3276   -23.9433 C             1 RES     
     844 H           10.9854    48.2785   -23.9809 H             1 RES     
     845 H            9.5837    49.3646   -23.8229 H             1 RES     
     846 C            9.3126    47.7636   -25.2516 C             1 RES     
     847 H            8.2244    47.8128   -25.2140 H             1 RES     
     848 H            9.6261    46.7266   -25.3720 H             1 RES     
     849 C            9.7996    48.5575   -26.3890 C             1 RES     
     850 H            8.9571    49.2103   -26.2940 H             1 RES     
     851 H            9.9958    48.3764   -27.4253 H             1 RES     
     852 H           10.6569    49.0131   -25.9378 H             1 RES     
     853 N            0.0000    43.8178     5.0000 N             1 RES     
     854 C           -0.2385    45.2647     5.2164 C             1 RES     
     855 H            0.5332    45.8871     4.7159 H             1 RES     
     856 H           -0.1981    45.5187     6.2997 H             1 RES     
     857 H           -1.2376    45.5675     4.8309 H             1 RES     
     858 C            1.3488    43.4584     5.4991 C             1 RES     
     859 H            1.5635    42.3796     5.3296 H             1 RES     
     860 H            1.4371    43.6577     6.5909 H             1 RES     
     861 H            2.1425    44.0556     5.0024 H             1 RES     
     862 C           -1.0046    43.0573     5.7821 C             1 RES     
     863 H           -0.9332    43.2901     6.8687 H             1 RES     
     864 H           -0.8600    41.9598     5.6630 H             1 RES     
     865 H           -2.0397    43.3024     5.4530 H             1 RES     
     866 C           -0.1616    43.4505     3.5602 C             1 RES     
     867 H           -1.1945    43.6886     3.2192 H             1 RES     
     868 H           -0.0217    42.3538     3.4280 H             1 RES     
     869 C            0.8031    44.1463     2.5893 C             1 RES     
     870 H            1.8631    43.8816     2.7771 H             1 RES     
     871 H            0.6645    45.2458     2.5636 H             1 RES     
     872 P           -0.2981    44.7270     0.4251 P             1 RES     
     873 O           -0.4040    44.3274    -1.1206 O             1 RES     
     874 O            0.7304    43.7468     1.1609 O             1 RES     
     875 O            0.2600    46.2256     0.4782 O             1 RES     
     876 O           -1.7579    44.5392     1.0524 O             1 RES     
     877 C           -1.3644    45.2555    -1.7698 C             1 RES     
     878 H           -1.0041    46.2794    -1.6696 H             1 RES     
     879 H           -2.3387    45.1640    -1.2898 H             1 RES     
     880 C           -0.5826    43.7015    -3.5864 C             1 RES     
     881 H            0.4523    43.9602    -3.3625 H             1 RES     
     882 H           -0.8823    42.8449    -2.9827 H             1 RES     
     883 C           -1.4928    44.9008    -3.2629 C             1 RES     
     884 H           -2.5277    44.6420    -3.4869 H             1 RES     
     885 C            0.4112    44.2832    -5.4073 C             1 RES     
     886 O            1.0539    44.9771    -4.6210 O             1 RES     
     887 O           -0.7052    43.3628    -5.0117 O             1 RES     
     888 C            0.6282    44.2326    -6.8198 C             1 RES     
     889 H           -0.2801    44.5365    -7.3401 H             1 RES     
     890 H            0.8853    43.2118    -7.1027 H             1 RES     
     891 C            1.7812    45.1777    -7.2058 C             1 RES     
     892 H            2.6895    44.8737    -6.6855 H             1 RES     
     893 H            1.5241    46.1985    -6.9230 H             1 RES     
     894 C            2.0141    45.1100    -8.7266 C             1 RES     
     895 H            1.1058    45.4139    -9.2469 H             1 RES     
     896 H            2.2712    44.0892    -9.0095 H             1 RES     
     897 C            3.1671    46.0551    -9.1127 C             1 RES     
     898 H            4.0754    45.7512    -8.5924 H             1 RES     
     899 H            2.9100    47.0759    -8.8298 H             1 RES     
     900 C            3.4000    45.9874   -10.6334 C             1 RES     
     901 H            2.4917    46.2914   -11.1537 H             1 RES     
     902 H            3.6571    44.9666   -10.9163 H             1 RES     
     903 C            4.5529    46.9325   -11.0195 C             1 RES     
     904 H            5.4612    46.6286   -10.4992 H             1 RES     
     905 H            4.2959    47.9533   -10.7366 H             1 RES     
     906 C            4.7859    46.8649   -12.5403 C             1 RES     
     907 H            3.8776    47.1688   -13.0606 H             1 RES     
     908 H            5.0430    45.8441   -12.8231 H             1 RES     
     909 C            5.9388    47.8100   -12.9263 C             1 RES     
     910 H            6.8471    47.5060   -12.4060 H             1 RES     
     911 H            5.6817    48.8308   -12.6434 H             1 RES     
     912 C            6.1717    47.7423   -14.4471 C             1 RES     
     913 H            5.2634    48.0462   -14.9674 H             1 RES     
     914 H            6.4288    46.7215   -14.7299 H             1 RES     
     915 C            7.3247    48.6874   -14.8331 C             1 RES     
     916 H            8.2330    48.3835   -14.3128 H             1 RES     
     917 H            7.0676    49.7082   -14.5503 H             1 RES     
     918 C            7.5576    48.6197   -16.3539 C             1 RES     
     919 H            6.6493    48.9237   -16.8742 H             1 RES     
     920 H            7.8147    47.5989   -16.6368 H             1 RES     
     921 C            8.7106    49.5648   -16.7399 C             1 RES     
     922 H            9.6189    49.2609   -16.2196 H             1 RES     
     923 H            8.4535    50.5856   -16.4571 H             1 RES     
     924 C            8.9435    49.4972   -18.2607 C             1 RES     
     925 H            8.0352    49.8011   -18.7810 H             1 RES     
     926 H            9.2006    48.4764   -18.5436 H             1 RES     
     927 C           10.0965    50.4423   -18.6468 C             1 RES     
     928 H           11.0048    50.1383   -18.1265 H             1 RES     
     929 H            9.8394    51.4631   -18.3639 H             1 RES     
     930 C           10.3294    50.3746   -20.1675 C             1 RES     
     931 H            9.4211    50.6785   -20.6878 H             1 RES     
     932 H           10.5865    49.3538   -20.4504 H             1 RES     
     933 C           11.4823    51.3197   -20.5536 C             1 RES     
     934 H           12.3906    51.0158   -20.0333 H             1 RES     
     935 H           11.2252    52.3405   -20.2707 H             1 RES     
     936 C           11.7047    51.2551   -22.0052 C             1 RES     
     937 H           12.4051    50.4589   -21.8625 H             1 RES     
     938 H           12.0709    51.9222   -22.7575 H             1 RES     
     939 H           10.7628    50.8508   -22.3148 H             1 RES     
     940 C           -1.4885    45.3415    -5.3317 C             1 RES     
     941 O           -1.9599    44.2083    -5.4118 O             1 RES     
     942 O           -1.1037    46.0128    -4.0467 O             1 RES     
     943 C           -1.2402    46.2049    -6.4442 C             1 RES     
     944 H           -0.1804    46.4567    -6.4819 H             1 RES     
     945 H           -1.8266    47.1158    -6.3239 H             1 RES     
     946 C           -1.6472    45.5020    -7.7526 C             1 RES     
     947 H           -2.7071    45.2502    -7.7149 H             1 RES     
     948 H           -1.0609    44.5911    -7.8730 H             1 RES     
     949 C           -1.3853    46.4418    -8.9441 C             1 RES     
     950 H           -0.3255    46.6936    -8.9817 H             1 RES     
     951 H           -1.9717    47.3528    -8.8237 H             1 RES     
     952 C           -1.7924    45.7389   -10.2525 C             1 RES     
     953 H           -2.8522    45.4871   -10.2148 H             1 RES     
     954 H           -1.2060    44.8280   -10.3728 H             1 RES     
     955 C           -1.5304    46.6788   -11.4439 C             1 RES     
     956 H           -0.4706    46.9306   -11.4816 H             1 RES     
     957 H           -2.1168    47.5897   -11.3236 H             1 RES     
     958 C           -1.9375    45.9758   -12.7523 C             1 RES     
     959 H           -2.9973    45.7240   -12.7147 H             1 RES     
     960 H           -1.3511    45.0649   -12.8727 H             1 RES     
     961 C           -1.6755    46.9157   -13.9438 C             1 RES     
     962 H           -0.6157    47.1675   -13.9815 H             1 RES     
     963 H           -2.2619    47.8266   -13.8234 H             1 RES     
     964 C           -2.0826    46.2128   -15.2522 C             1 RES     
     965 H           -3.1424    45.9610   -15.2145 H             1 RES     
     966 H           -1.4962    45.3018   -15.3725 H             1 RES     
     967 C           -1.8206    47.1526   -16.4437 C             1 RES     
     968 H           -0.7608    47.4044   -16.4813 H             1 RES     
     969 H           -2.4070    48.0636   -16.3233 H             1 RES     
     970 C           -2.2277    46.4497   -17.7520 C             1 RES     
     971 H           -3.2875    46.1979   -17.7144 H             1 RES     
     972 H           -1.6413    45.5388   -17.8724 H             1 RES     
     973 C           -1.9657    47.3895   -18.9435 C             1 RES     
     974 H           -0.9059    47.6414   -18.9812 H             1 RES     
     975 H           -2.5521    48.3005   -18.8232 H             1 RES     
     976 C           -2.3728    46.6866   -20.2519 C             1 RES     
     977 H           -3.4326    46.4348   -20.2143 H             1 RES     
     978 H           -1.7864    45.7757   -20.3723 H             1 RES     
     979 C           -2.1108    47.6265   -21.4434 C             1 RES     
     980 H           -1.0510    47.8783   -21.4811 H             1 RES     
     981 H           -2.6972    48.5374   -21.3230 H             1 RES     
     982 C           -2.5179    46.9235   -22.7518 C             1 RES     
     983 H           -3.5777    46.6717   -22.7141 H             1 RES     
     984 H           -1.9315    46.0126   -22.8721 H             1 RES     
     985 C           -2.2559    47.8634   -23.9433 C             1 RES     
     986 H           -1.1961    48.1152   -23.9809 H             1 RES     
     987 H           -2.8423    48.7743   -23.8229 H             1 RES     
     988 C           -2.6630    47.1605   -25.2516 C             1 RES     
     989 H           -3.7228    46.9087   -25.2140 H             1 RES     
     990 H           -2.0766    46.2495   -25.3720 H             1 RES     
     991 C           -2.4130    48.0576   -26.3890 C             1 RES     
     992 H           -3.4024    48.4538   -26.2940 H             1 RES     
     993 H           -2.1745    47.9374   -27.4253 H             1 RES     
     994 H           -1.7138    48.7313   -25.9378 H             1 RES     
     995 N           38.3406    32.8634     5.0000 N             1 RES     
     996 C           38.6746    34.2913     5.2164 C             1 RES     
     997 H           39.6259    34.5704     4.7159 H             1 RES     
     998 H           38.8092    34.5104     6.2997 H             1 RES     
     999 H           37.8677    34.9537     4.8309 H             1 RES     
    1000 C           39.4487    32.0146     5.4991 C             1 RES     
    1001 H           39.2338    30.9359     5.3296 H             1 RES     
    1002 H           39.6067    32.1648     6.5909 H             1 RES     
    1003 H           40.4107    32.2621     5.0024 H             1 RES     
    1004 C           37.1213    32.5458     5.7821 C             1 RES     
    1005 H           37.2764    32.7335     6.8687 H             1 RES     
    1006 H           36.8344    31.4766     5.6630 H             1 RES     
    1007 H           36.2590    33.1688     5.4530 H             1 RES     
    1008 C           38.0505    32.5860     3.5602 C             1 RES     
    1009 H           37.1877    33.2017     3.2192 H             1 RES     
    1010 H           37.7596    31.5194     3.4280 H             1 RES     
    1011 C           39.2082    32.8591     2.5893 C             1 RES     
    1012 H           40.0859    32.2085     2.7771 H             1 RES     
    1013 H           39.5015    33.9278     2.5636 H             1 RES     
    1014 P           38.4136    33.8174     0.4251 P             1 RES     
    1015 O           38.1627    33.4888    -1.1206 O             1 RES     
    1016 O           38.9881    32.5179     1.1609 O             1 RES     
    1017 O           39.5033    34.9878     0.4782 O             1 RES     
    1018 O           36.9932    34.2032     1.0524 O             1 RES     
    1019 C           37.6312    34.7141    -1.7698 C             1 RES     
    1020 H           38.3562    35.5218    -1.6696 H             1 RES     
    1021 H           36.6961    35.0029    -1.2898 H             1 RES     
    1022 C           37.7579    32.9791    -3.5864 C             1 RES     
    1023 H           38.8129    32.8216    -3.3625 H             1 RES     
    1024 H           37.1528    32.3027    -2.9827 H             1 RES     
    1025 C           37.3766    34.4357    -3.2629 C             1 RES     
    1026 H           36.3216    34.5931    -3.4869 H             1 RES     
    1027 C           38.8987    33.1357    -5.4073 C             1 RES     
    1028 O           39.7583    33.5304    -4.6210 O             1 RES     
    1029 O           37.5149    32.7133    -5.0117 O             1 RES     
    1030 C           39.0798    33.0058    -6.8198 C             1 RES     
    1031 H           38.3572    33.6345    -7.3401 H             1 RES     
    1032 H           38.9261    31.9644    -7.1027 H             1 RES     
    1033 C           40.5069    33.4370    -7.2058 C             1 RES     
    1034 H           41.2294    32.8083    -6.6855 H             1 RES     
    1035 H           40.6605    34.4784    -6.9230 H             1 RES     
    1036 C           40.6961    33.2853    -8.7266 C             1 RES     
    1037 H           39.9735    33.9140    -9.2469 H             1 RES     
    1038 H           40.5424    32.2439    -9.0095 H             1 RES     
    1039 C           42.1232    33.7165    -9.1127 C             1 RES     
    1040 H           42.8457    33.0878    -8.5924 H             1 RES     
    1041 H           42.2768    34.7579    -8.8298 H             1 RES     
    1042 C           42.3124    33.5648   -10.6334 C             1 RES     
    1043 H           41.5898    34.1935   -11.1537 H             1 RES     
    1044 H           42.1588    32.5234   -10.9163 H             1 RES     
    1045 C           43.7395    33.9960   -11.0195 C             1 RES     
    1046 H           44.4620    33.3673   -10.4992 H             1 RES     
    1047 H           43.8931    35.0374   -10.7366 H             1 RES     
    1048 C           43.9287    33.8443   -12.5403 C             1 RES     
    1049 H           43.2061    34.4730   -13.0606 H             1 RES     
    1050 H           43.7751    32.8029   -12.8231 H             1 RES     
    1051 C           45.3558    34.2755   -12.9263 C             1 RES     
    1052 H           46.0783    33.6468   -12.4060 H             1 RES     
    1053 H           45.5094    35.3169   -12.6434 H             1 RES     
    1054 C           45.5450    34.1238   -14.4471 C             1 RES     
    1055 H           44.8224    34.7525   -14.9674 H             1 RES     
    1056 H           45.3914    33.0824   -14.7299 H             1 RES     
    1057 C           46.9721    34.5550   -14.8331 C             1 RES     
    1058 H           47.6946    33.9263   -14.3128 H             1 RES     
    1059 H           47.1257    35.5964   -14.5503 H             1 RES     
    1060 C           47.1613    34.4033   -16.3539 C             1 RES     
    1061 H           46.4387    35.0320   -16.8742 H             1 RES     
    1062 H           47.0077    33.3619   -16.6368 H             1 RES     
    1063 C           48.5884    34.8345   -16.7399 C             1 RES     
    1064 H           49.3109    34.2058   -16.2196 H             1 RES     
    1065 H           48.7420    35.8759   -16.4571 H             1 RES     
    1066 C           48.7776    34.6827   -18.2607 C             1 RES     
    1067 H           48.0550    35.3115   -18.7810 H             1 RES     
    1068 H           48.6240    33.6414   -18.5436 H             1 RES     
    1069 C           50.2047    35.1140   -18.6468 C             1 RES     
    1070 H           50.9272    34.4853   -18.1265 H             1 RES     
    1071 H           50.3583    36.1554   -18.3639 H             1 RES     
    1072 C           50.3939    34.9622   -20.1675 C             1 RES     
    1073 H           49.6713    35.5910   -20.6878 H             1 RES     
    1074 H           50.2403    33.9209   -20.4504 H             1 RES     
    1075 C           51.8210    35.3935   -20.5536 C             1 RES     
    1076 H           52.5435    34.7648   -20.0333 H             1 RES     
    1077 H           51.9746    36.4349   -20.2707 H             1 RES     
    1078 C           52.0016    35.2486   -22.0052 C             1 RES     
    1079 H           52.3435    34.2448   -21.8625 H             1 RES     
    1080 H           52.5955    35.7246   -22.7575 H             1 RES     
    1081 H           50.9767    35.2361   -22.3148 H             1 RES     
    1082 C           37.5495    34.8411    -5.3317 C             1 RES     
    1083 O           36.6798    33.9750    -5.4118 O             1 RES     
    1084 O           38.1621    35.3137    -4.0467 O             1 RES     
    1085 C           38.1096    35.5435    -6.4442 C             1 RES     
    1086 H           39.1850    35.3700    -6.4819 H             1 RES     
    1087 H           37.9170    36.6095    -6.3239 H             1 RES     
    1088 C           37.4643    35.0501    -7.7526 C             1 RES     
    1089 H           36.3888    35.2236    -7.7149 H             1 RES     
    1090 H           37.6569    33.9841    -7.8730 H             1 RES     
    1091 C           38.0663    35.8179    -8.9441 C             1 RES     
    1092 H           39.1418    35.6444    -8.9817 H             1 RES     
    1093 H           37.8737    36.8840    -8.8237 H             1 RES     
    1094 C           37.4210    35.3246   -10.2525 C             1 RES     
    1095 H           36.3456    35.4980   -10.2148 H             1 RES     
    1096 H           37.6136    34.2585   -10.3728 H             1 RES     
    1097 C           38.0231    36.0924   -11.4439 C             1 RES     
    1098 H           39.0985    35.9189   -11.4816 H             1 RES     
    1099 H           37.8305    37.1584   -11.3236 H             1 RES     
    1100 C           37.3778    35.5990   -12.7523 C             1 RES     
    1101 H           36.3023    35.7725   -12.7147 H             1 RES     
    1102 H           37.5704    34.5329   -12.8727 H             1 RES     
    1103 C           37.9798    36.3668   -13.9438 C             1 RES     
    1104 H           39.0553    36.1933   -13.9815 H             1 RES     
    1105 H           37.7872    37.4329   -13.8234 H             1 RES     
    1106 C           37.3345    35.8735   -15.2522 C             1 RES     
    1107 H           36.2591    36.0469   -15.2145 H             1 RES     
    1108 H           37.5271    34.8074   -15.3725 H             1 RES     
    1109 C           37.9366    36.6412   -16.4437 C             1 RES     
    1110 H           39.0120    36.4678   -16.4813 H             1 RES     
    1111 H           37.7440    37.7073   -16.3233 H             1 RES     
    1112 C           37.2913    36.1479   -17.7520 C             1 RES     
    1113 H           36.2158    36.3214   -17.7144 H             1 RES     
    1114 H           37.4839    35.0818   -17.8724 H             1 RES     
    1115 C           37.8933    36.9157   -18.9435 C             1 RES     
    1116 H           38.9688    36.7422   -18.9812 H             1 RES     
    1117 H           37.7007    37.9818   -18.8232 H             1 RES     
    1118 C           37.2480    36.4224   -20.2519 C             1 RES     
    1119 H           36.1726    36.5958   -20.2143 H             1 RES     
    1120 H           37.4406    35.3563   -20.3723 H             1 RES     
    1121 C           37.8501    37.1901   -21.4434 C             1 RES     
    1122 H           38.9255    37.0167   -21.4811 H             1 RES     
    1123 H           37.6575    38.2562   -21.3230 H             1 RES     
    1124 C           37.2048    36.6968   -22.7518 C             1 RES     
    1125 H           36.1293    36.8703   -22.7141 H             1 RES     
    1126 H           37.3974    35.6307   -22.8721 H             1 RES     
    1127 C           37.8068    37.4646   -23.9433 C             1 RES     
    1128 H           38.8822    37.2911   -23.9809 H             1 RES     
    1129 H           37.6142    38.5306   -23.8229 H             1 RES     
    1130 C           37.1615    36.9712   -25.2516 C             1 RES     
    1131 H           36.0861    37.1447   -25.2140 H             1 RES     
    1132 H           37.3541    35.9052   -25.3720 H             1 RES     
    1133 C           37.7362    37.7041   -26.3890 C             1 RES     
    1134 H           36.9740    38.4491   -26.2940 H             1 RES     
    1135 H           37.9104    37.5017   -27.4253 H             1 RES     
    1136 H           38.6401    38.0586   -25.9378 H             1 RES     
    1137 N           21.9089    32.8634     5.0000 N             1 RES     
    1138 C           21.8104    34.3265     5.2164 C             1 RES     
    1139 H           22.6383    34.8719     4.7159 H             1 RES     
    1140 H           21.8750    34.5754     6.2997 H             1 RES     
    1141 H           20.8450    34.7238     4.8309 H             1 RES     
    1142 C           23.2169    32.3761     5.4991 C             1 RES     
    1143 H           23.3271    31.2817     5.3296 H             1 RES     
    1144 H           23.3240    32.5660     6.5909 H             1 RES     
    1145 H           24.0643    32.8943     5.0024 H             1 RES     
    1146 C           20.8359    32.2029     5.7821 C             1 RES     
    1147 H           20.9293    32.4277     6.8687 H             1 RES     
    1148 H           20.8745    31.0965     5.6630 H             1 RES     
    1149 H           19.8291    32.5462     5.4530 H             1 RES     
    1150 C           21.7127    32.5133     3.5602 C             1 RES     
    1151 H           20.7075    32.8494     3.2192 H             1 RES     
    1152 H           21.7467    31.4082     3.4280 H             1 RES     
    1153 C           22.7398    33.1132     2.5893 C             1 RES     
    1154 H           23.7695    32.7480     2.7771 H             1 RES     
    1155 H           22.7075    34.2209     2.5636 H             1 RES     
    1156 P           21.6995    33.7970     0.4251 P             1 RES     
    1157 O           21.5557    33.4094    -1.1206 O             1 RES     
    1158 O           22.6291    32.7226     1.1609 O             1 RES     
    1159 O           22.3989    35.2350     0.4782 O             1 RES     
    1160 O           20.2284    33.7502     1.0524 O             1 RES     
    1161 C           20.6889    34.4255    -1.7698 C             1 RES     
    1162 H           21.1458    35.4100    -1.6696 H             1 RES     
    1163 H           19.7103    34.4279    -1.2898 H             1 RES     
    1164 C           21.3178    32.8035    -3.5864 C             1 RES     
    1165 H           22.3728    32.9617    -3.3625 H             1 RES     
    1166 H           20.9372    31.9797    -2.9827 H             1 RES     
    1167 C           20.5270    34.0847    -3.2629 C             1 RES     
    1168 H           19.4721    33.9265    -3.4869 H             1 RES     
    1169 C           22.3629    33.2871    -5.4073 C             1 RES     
    1170 O           23.0693    33.9161    -4.6210 O             1 RES     
    1171 O           21.1633    32.4782    -5.0117 O             1 RES     
    1172 C           22.5740    33.2159    -6.8198 C             1 RES     
    1173 H           21.6991    33.6056    -7.3401 H             1 RES     
    1174 H           22.7319    32.1751    -7.1027 H             1 RES     
    1175 C           23.8124    34.0459    -7.2058 C             1 RES     
    1176 H           24.6874    33.6562    -6.6855 H             1 RES     
    1177 H           23.6546    35.0866    -6.9230 H             1 RES     
    1178 C           24.0378    33.9562    -8.7266 C             1 RES     
    1179 H           23.1629    34.3459    -9.2469 H             1 RES     
    1180 H           24.1957    32.9154    -9.0095 H             1 RES     
    1181 C           25.2762    34.7862    -9.1127 C             1 RES     
    1182 H           26.1511    34.3965    -8.5924 H             1 RES     
    1183 H           25.1183    35.8270    -8.8298 H             1 RES     
    1184 C           25.5015    34.6965   -10.6334 C             1 RES     
    1185 H           24.6266    35.0862   -11.1537 H             1 RES     
    1186 H           25.6594    33.6557   -10.9163 H             1 RES     
    1187 C           26.7399    35.5265   -11.0195 C             1 RES     
    1188 H           27.6148    35.1368   -10.4992 H             1 RES     
    1189 H           26.5820    36.5673   -10.7366 H             1 RES     
    1190 C           26.9652    35.4368   -12.5403 C             1 RES     
    1191 H           26.0903    35.8265   -13.0606 H             1 RES     
    1192 H           27.1231    34.3960   -12.8231 H             1 RES     
    1193 C           28.2036    36.2668   -12.9263 C             1 RES     
    1194 H           29.0785    35.8771   -12.4060 H             1 RES     
    1195 H           28.0457    37.3076   -12.6434 H             1 RES     
    1196 C           28.4290    36.1771   -14.4471 C             1 RES     
    1197 H           27.5540    36.5668   -14.9674 H             1 RES     
    1198 H           28.5869    35.1363   -14.7299 H             1 RES     
    1199 C           29.6674    37.0071   -14.8331 C             1 RES     
    1200 H           30.5423    36.6174   -14.3128 H             1 RES     
    1201 H           29.5095    38.0479   -14.5503 H             1 RES     
    1202 C           29.8927    36.9174   -16.3539 C             1 RES     
    1203 H           29.0178    37.3071   -16.8742 H             1 RES     
    1204 H           30.0506    35.8766   -16.6368 H             1 RES     
    1205 C           31.1311    37.7474   -16.7399 C             1 RES     
    1206 H           32.0060    37.3577   -16.2196 H             1 RES     
    1207 H           30.9732    38.7882   -16.4571 H             1 RES     
    1208 C           31.3564    37.6577   -18.2607 C             1 RES     
    1209 H           30.4815    38.0474   -18.7810 H             1 RES     
    1210 H           31.5143    36.6169   -18.5436 H             1 RES     
    1211 C           32.5948    38.4877   -18.6468 C             1 RES     
    1212 H           33.4697    38.0980   -18.1265 H             1 RES     
    1213 H           32.4369    39.5285   -18.3639 H             1 RES     
    1214 C           32.8201    38.3980   -20.1675 C             1 RES     
    1215 H           31.9452    38.7877   -20.6878 H             1 RES     
    1216 H           32.9780    37.3572   -20.4504 H             1 RES     
    1217 C           34.0585    39.2280   -20.5536 C             1 RES     
    1218 H           34.9335    38.8383   -20.0333 H             1 RES     
    1219 H           33.9007    40.2688   -20.2707 H             1 RES     
    1220 C           34.2736    39.1424   -22.0052 C             1 RES     
    1221 H           34.8944    38.2826   -21.8625 H             1 RES     
    1222 H           34.7023    39.7713   -22.7575 H             1 RES     
    1223 H           33.2974    38.8304   -22.3148 H             1 RES     
    1224 C           20.5736    34.5229    -5.3317 C             1 RES     
    1225 O           19.9955    33.4402    -5.4118 O             1 RES     
    1226 O           21.0211    35.1542    -4.0467 O             1 RES     
    1227 C           20.9036    35.3585    -6.4442 C             1 RES     
    1228 H           21.9828    35.5074    -6.4819 H             1 RES     
    1229 H           20.4075    36.3215    -6.3239 H             1 RES     
    1230 C           20.4310    34.6979    -7.7526 C             1 RES     
    1231 H           19.3519    34.5490    -7.7149 H             1 RES     
    1232 H           20.9272    33.7349    -7.8730 H             1 RES     
    1233 C           20.7820    35.6083    -8.9441 C             1 RES     
    1234 H           21.8611    35.7572    -8.9817 H             1 RES     
    1235 H           20.2858    36.5713    -8.8237 H             1 RES     
    1236 C           20.3093    34.9477   -10.2525 C             1 RES     
    1237 H           19.2302    34.7988   -10.2148 H             1 RES     
    1238 H           20.8055    33.9847   -10.3728 H             1 RES     
    1239 C           20.6603    35.8580   -11.4439 C             1 RES     
    1240 H           21.7394    36.0069   -11.4816 H             1 RES     
    1241 H           20.1641    36.8211   -11.3236 H             1 RES     
    1242 C           20.1876    35.1975   -12.7523 C             1 RES     
    1243 H           19.1085    35.0486   -12.7147 H             1 RES     
    1244 H           20.6838    34.2344   -12.8727 H             1 RES     
    1245 C           20.5386    36.1078   -13.9438 C             1 RES     
    1246 H           21.6177    36.2567   -13.9815 H             1 RES     
    1247 H           20.0424    37.0708   -13.8234 H             1 RES     
    1248 C           20.0659    35.4472   -15.2522 C             1 RES     
    1249 H           18.9868    35.2983   -15.2145 H             1 RES     
    1250 H           20.5621    34.4842   -15.3725 H             1 RES     
    1251 C           20.4169    36.3576   -16.4437 C             1 RES     
    1252 H           21.4960    36.5065   -16.4813 H             1 RES     
    1253 H           19.9207    37.3206   -16.3233 H             1 RES     
    1254 C           19.9443    35.6970   -17.7520 C             1 RES     
    1255 H           18.8651    35.5481   -17.7144 H             1 RES     
    1256 H           20.4404    34.7340   -17.8724 H             1 RES     
    1257 C           20.2952    36.6073   -18.9435 C             1 RES     
    1258 H           21.3744    36.7562   -18.9812 H             1 RES     
    1259 H           19.7990    37.5704   -18.8232 H             1 RES     
    1260 C           19.8226    35.9468   -20.2519 C             1 RES     
    1261 H           18.7434    35.7979   -20.2143 H             1 RES     
    1262 H           20.3187    34.9837   -20.3723 H             1 RES     
    1263 C           20.1735    36.8571   -21.4434 C             1 RES     
    1264 H           21.2527    37.0060   -21.4811 H             1 RES     
    1265 H           19.6774    37.8201   -21.3230 H             1 RES     
    1266 C           19.7009    36.1965   -22.7518 C             1 RES     
    1267 H           18.6218    36.0476   -22.7141 H             1 RES     
    1268 H           20.1971    35.2335   -22.8721 H             1 RES     
    1269 C           20.0519    37.1069   -23.9433 C             1 RES     
    1270 H           21.1310    37.2558   -23.9809 H             1 RES     
    1271 H           19.5557    38.0699   -23.8229 H             1 RES     
    1272 C           19.5792    36.4463   -25.2516 C             1 RES     
    1273 H           18.5001    36.2974   -25.2140 H             1 RES     
    1274 H           20.0754    35.4833   -25.3720 H             1 RES     
    1275 C           19.9142    37.3153   -26.3890 C             1 RES     
    1276 H           18.9674    37.8046   -26.2940 H             1 RES     
    1277 H           20.1401    37.1727   -27.4253 H             1 RES     
    1278 H           20.6748    37.9187   -25.9378 H             1 RES     
    1279 N           27.3861    49.2950     5.0000 N             1 RES     
    1280 C           27.3416    50.7608     5.2164 C             1 RES     
    1281 H           28.1890    51.2753     4.7159 H             1 RES     
    1282 H           27.4153    51.0072     6.2997 H             1 RES     
    1283 H           26.3914    51.1933     4.8309 H             1 RES     
    1284 C           28.6753    48.7599     5.4991 C             1 RES     
    1285 H           28.7452    47.6623     5.3296 H             1 RES     
    1286 H           28.7893    48.9458     6.5909 H             1 RES     
    1287 H           29.5412    49.2466     5.0024 H             1 RES     
    1288 C           26.2896    48.6745     5.7821 C             1 RES     
    1289 H           26.3912    48.8957     6.8687 H             1 RES     
    1290 H           26.2874    47.5675     5.6630 H             1 RES     
    1291 H           25.2961    49.0546     5.4530 H             1 RES     
    1292 C           27.1772    48.9524     3.5602 C             1 RES     
    1293 H           26.1850    49.3253     3.2192 H             1 RES     
    1294 H           27.1705    47.8468     3.4280 H             1 RES     
    1295 C           28.2257    49.5141     2.5893 C             1 RES     
    1296 H           29.2412    49.1113     2.7771 H             1 RES     
    1297 H           28.2341    50.6223     2.5636 H             1 RES     
    1298 P           27.2112    50.2357     0.4251 P             1 RES     
    1299 O           27.0533    49.8537    -1.1206 O             1 RES     
    1300 O           28.1007    49.1278     1.1609 O             1 RES     
    1301 O           27.9631    51.6471     0.4782 O             1 RES     
    1302 O           25.7394    50.2431     1.0524 O             1 RES     
    1303 C           26.2244    50.9010    -1.7698 C             1 RES     
    1304 H           26.7173    51.8680    -1.6696 H             1 RES     
    1305 H           25.2466    50.9395    -1.2898 H             1 RES     
    1306 C           26.7933    49.2570    -3.5864 C             1 RES     
    1307 H           27.8533    49.3762    -3.3625 H             1 RES     
    1308 H           26.3826    48.4477    -2.9827 H             1 RES     
    1309 C           26.0501    50.5664    -3.2629 C             1 RES     
    1310 H           24.9900    50.4471    -3.4869 H             1 RES     
    1311 C           27.8554    49.7018    -5.4073 C             1 RES     
    1312 O           28.5845    50.3043    -4.6210 O             1 RES     
    1313 O           26.6268    48.9376    -5.0117 O             1 RES     
    1314 C           28.0638    49.6228    -6.8198 C             1 RES     
    1315 H           27.2038    50.0445    -7.3401 H             1 RES     
    1316 H           28.1833    48.5770    -7.1027 H             1 RES     
    1317 C           29.3319    50.4067    -7.2058 C             1 RES     
    1318 H           30.1919    49.9851    -6.6855 H             1 RES     
    1319 H           29.2124    51.4526    -6.9230 H             1 RES     
    1320 C           29.5538    50.3088    -8.7266 C             1 RES     
    1321 H           28.6938    50.7304    -9.2469 H             1 RES     
    1322 H           29.6733    49.2629    -9.0095 H             1 RES     
    1323 C           30.8219    51.0927    -9.1127 C             1 RES     
    1324 H           31.6819    50.6710    -8.5924 H             1 RES     
    1325 H           30.7024    52.1385    -8.8298 H             1 RES     
    1326 C           31.0438    50.9947   -10.6334 C             1 RES     
    1327 H           30.1838    51.4164   -11.1537 H             1 RES     
    1328 H           31.1632    49.9488   -10.9163 H             1 RES     
    1329 C           32.3118    51.7786   -11.0195 C             1 RES     
    1330 H           33.1718    51.3569   -10.4992 H             1 RES     
    1331 H           32.1924    52.8245   -10.7366 H             1 RES     
    1332 C           32.5337    51.6806   -12.5403 C             1 RES     
    1333 H           31.6737    52.1023   -13.0606 H             1 RES     
    1334 H           32.6532    50.6348   -12.8231 H             1 RES     
    1335 C           33.8018    52.4645   -12.9263 C             1 RES     
    1336 H           34.6618    52.0429   -12.4060 H             1 RES     
    1337 H           33.6823    53.5104   -12.6434 H             1 RES     
    1338 C           34.0237    52.3666   -14.4471 C             1 RES     
    1339 H           33.1637    52.7883   -14.9674 H             1 RES     
    1340 H           34.1432    51.3207   -14.7299 H             1 RES     
    1341 C           35.2918    53.1505   -14.8331 C             1 RES     
    1342 H           36.1518    52.7288   -14.3128 H             1 RES     
    1343 H           35.1723    54.1963   -14.5503 H             1 RES     
    1344 C           35.5137    53.0525   -16.3539 C             1 RES     
    1345 H           34.6537    53.4742   -16.8742 H             1 RES     
    1346 H           35.6332    52.0067   -16.6368 H             1 RES     
    1347 C           36.7818    53.8364   -16.7399 C             1 RES     
    1348 H           37.6418    53.4147   -16.2196 H             1 RES     
    1349 H           36.6623    54.8823   -16.4571 H             1 RES     
    1350 C           37.0037    53.7385   -18.2607 C             1 RES     
    1351 H           36.1437    54.1601   -18.7810 H             1 RES     
    1352 H           37.1232    52.6926   -18.5436 H             1 RES     
    1353 C           38.2718    54.5224   -18.6468 C             1 RES     
    1354 H           39.1318    54.1007   -18.1265 H             1 RES     
    1355 H           38.1523    55.5682   -18.3639 H             1 RES     
    1356 C           38.4936    54.4244   -20.1675 C             1 RES     
    1357 H           37.6337    54.8461   -20.6878 H             1 RES     
    1358 H           38.6131    53.3785   -20.4504 H             1 RES     
    1359 C           39.7617    55.2083   -20.5536 C             1 RES     
    1360 H           40.6217    54.7866   -20.0333 H             1 RES     
    1361 H           39.6423    56.2542   -20.2707 H             1 RES     
    1362 C           39.9735    55.1148   -22.0052 C             1 RES     
    1363 H           40.5622    54.2328   -21.8625 H             1 RES     
    1364 H           40.4250    55.7275   -22.7575 H             1 RES     
    1365 H           38.9864    54.8390   -22.3148 H             1 RES     
    1366 C           26.1128    51.0026    -5.3317 C             1 RES     
    1367 O           25.4953    49.9419    -5.4118 O             1 RES     
    1368 O           26.5832    51.6170    -4.0467 O             1 RES     
    1369 C           26.4734    51.8255    -6.4442 C             1 RES     
    1370 H           27.5572    51.9346    -6.4819 H             1 RES     
    1371 H           26.0130    52.8061    -6.3239 H             1 RES     
    1372 C           25.9767    51.1827    -7.7526 C             1 RES     
    1373 H           24.8928    51.0737    -7.7149 H             1 RES     
    1374 H           26.4371    50.2021    -7.8730 H             1 RES     
    1375 C           26.3610    52.0796    -8.9441 C             1 RES     
    1376 H           27.4448    52.1886    -8.9817 H             1 RES     
    1377 H           25.9005    53.0602    -8.8237 H             1 RES     
    1378 C           25.8643    51.4368   -10.2525 C             1 RES     
    1379 H           24.7804    51.3277   -10.2148 H             1 RES     
    1380 H           26.3247    50.4562   -10.3728 H             1 RES     
    1381 C           26.2485    52.3336   -11.4439 C             1 RES     
    1382 H           27.3324    52.4427   -11.4816 H             1 RES     
    1383 H           25.7881    53.3143   -11.3236 H             1 RES     
    1384 C           25.7519    51.6909   -12.7523 C             1 RES     
    1385 H           24.6680    51.5818   -12.7147 H             1 RES     
    1386 H           26.2123    50.7103   -12.8727 H             1 RES     
    1387 C           26.1361    52.5877   -13.9438 C             1 RES     
    1388 H           27.2200    52.6968   -13.9815 H             1 RES     
    1389 H           25.6757    53.5684   -13.8234 H             1 RES     
    1390 C           25.6395    51.9450   -15.2522 C             1 RES     
    1391 H           24.5556    51.8359   -15.2145 H             1 RES     
    1392 H           26.0999    50.9643   -15.3725 H             1 RES     
    1393 C           26.0237    52.8418   -16.4437 C             1 RES     
    1394 H           27.1076    52.9509   -16.4813 H             1 RES     
    1395 H           25.5633    53.8224   -16.3233 H             1 RES     
    1396 C           25.5271    52.1990   -17.7520 C             1 RES     
    1397 H           24.4432    52.0900   -17.7144 H             1 RES     
    1398 H           25.9875    51.2184   -17.8724 H             1 RES     
    1399 C           25.9113    53.0959   -18.9435 C             1 RES     
    1400 H           26.9952    53.2049   -18.9812 H             1 RES     
    1401 H           25.4509    54.0765   -18.8232 H             1 RES     
    1402 C           25.4147    52.4531   -20.2519 C             1 RES     
    1403 H           24.3308    52.3440   -20.2143 H             1 RES     
    1404 H           25.8751    51.4725   -20.3723 H             1 RES     
    1405 C           25.7989    53.3499   -21.4434 C             1 RES     
    1406 H           26.8828    53.4590   -21.4811 H             1 RES     
    1407 H           25.3385    54.3306   -21.3230 H             1 RES     
    1408 C           25.3023    52.7072   -22.7518 C             1 RES     
    1409 H           24.2184    52.5981   -22.7141 H             1 RES     
    1410 H           25.7627    51.7266   -22.8721 H             1 RES     
    1411 C           25.6865    53.6040   -23.9433 C             1 RES     
    1412 H           26.7704    53.7131   -23.9809 H             1 RES     
    1413 H           25.2261    54.5847   -23.8229 H             1 RES     
    1414 C           25.1899    52.9613   -25.2516 C             1 RES     
    1415 H           24.1060    52.8522   -25.2140 H             1 RES     
    1416 H           25.6503    51.9806   -25.3720 H             1 RES     
    1417 C           25.5566    53.8173   -26.3890 C             1 RES     
    1418 H           24.6285    54.3412   -26.2940 H             1 RES     
    1419 H           25.7771    53.6666   -27.4253 H             1 RES     
    1420 H           26.3389    54.3924   -25.9378 H             1 RES     
    1421 N           16.4317    49.2950     5.0000 N             1 RES     
    1422 C           16.4961    50.7601     5.2164 C             1 RES     
    1423 H           17.3794    51.2102     4.7159 H             1 RES     
    1424 H           16.5879    51.0003     6.2997 H             1 RES     
    1425 H           15.5807    51.2620     4.8309 H             1 RES     
    1426 C           17.6776    48.6656     5.4991 C             1 RES     
    1427 H           17.6657    47.5658     5.3296 H             1 RES     
    1428 H           17.8050    48.8425     6.5909 H             1 RES     
    1429 H           18.5772    49.0867     5.0024 H             1 RES     
    1430 C           15.2920    48.7576     5.7821 C             1 RES     
    1431 H           15.4098    48.9707     6.8687 H             1 RES     
    1432 H           15.2077    47.6539     5.6630 H             1 RES     
    1433 H           14.3295    49.2105     5.4530 H             1 RES     
    1434 C           16.1979    48.9689     3.5602 C             1 RES     
    1435 H           15.2361    49.4145     3.2192 H             1 RES     
    1436 H           16.1091    47.8669     3.4280 H             1 RES     
    1437 C           17.2852    49.4512     2.5893 C             1 RES     
    1438 H           18.2680    48.9740     2.7771 H             1 RES     
    1439 H           17.3759    50.5556     2.5636 H             1 RES     
    1440 P           16.3271    50.2461     0.4251 P             1 RES     
    1441 O           16.1412    49.8769    -1.1206 O             1 RES     
    1442 O           17.1318    49.0752     1.1609 O             1 RES     
    1443 O           17.1818    51.5977     0.4782 O             1 RES     
    1444 O           14.8599    50.3628     1.0524 O             1 RES     
    1445 C           15.3925    50.9828    -1.7698 C             1 RES     
    1446 H           15.9558    51.9106    -1.6696 H             1 RES     
    1447 H           14.4202    51.0938    -1.2898 H             1 RES     
    1448 C           15.8376    49.3011    -3.5864 C             1 RES     
    1449 H           16.9036    49.3413    -3.3625 H             1 RES     
    1450 H           15.3680    48.5246    -2.9827 H             1 RES     
    1451 C           15.1938    50.6621    -3.2629 C             1 RES     
    1452 H           14.1278    50.6219    -3.4869 H             1 RES     
    1453 C           16.9299    49.6658    -5.4073 C             1 RES     
    1454 O           17.7017    50.2125    -4.6210 O             1 RES     
    1455 O           15.6479    48.9950    -5.0117 O             1 RES     
    1456 C           17.1318    49.5716    -6.8198 C             1 RES     
    1457 H           16.3055    50.0560    -7.3401 H             1 RES     
    1458 H           17.1733    48.5197    -7.1027 H             1 RES     
    1459 C           18.4546    50.2591    -7.2058 C             1 RES     
    1460 H           19.2809    49.7747    -6.6855 H             1 RES     
    1461 H           18.4132    51.3110    -6.9230 H             1 RES     
    1462 C           18.6686    50.1449    -8.7266 C             1 RES     
    1463 H           17.8423    50.6293    -9.2469 H             1 RES     
    1464 H           18.7101    49.0931    -9.0095 H             1 RES     
    1465 C           19.9915    50.8325    -9.1127 C             1 RES     
    1466 H           20.8177    50.3481    -8.5924 H             1 RES     
    1467 H           19.9500    51.8843    -8.8298 H             1 RES     
    1468 C           20.2055    50.7183   -10.6334 C             1 RES     
    1469 H           19.3792    51.2027   -11.1537 H             1 RES     
    1470 H           20.2469    49.6665   -10.9163 H             1 RES     
    1471 C           21.5283    51.4059   -11.0195 C             1 RES     
    1472 H           22.3546    50.9215   -10.4992 H             1 RES     
    1473 H           21.4868    52.4577   -10.7366 H             1 RES     
    1474 C           21.7423    51.2917   -12.5403 C             1 RES     
    1475 H           20.9160    51.7761   -13.0606 H             1 RES     
    1476 H           21.7837    50.2398   -12.8231 H             1 RES     
    1477 C           23.0651    51.9792   -12.9263 C             1 RES     
    1478 H           23.8914    51.4948   -12.4060 H             1 RES     
    1479 H           23.0236    53.0311   -12.6434 H             1 RES     
    1480 C           23.2791    51.8650   -14.4471 C             1 RES     
    1481 H           22.4528    52.3494   -14.9674 H             1 RES     
    1482 H           23.3205    50.8132   -14.7299 H             1 RES     
    1483 C           24.6019    52.5526   -14.8331 C             1 RES     
    1484 H           25.4282    52.0682   -14.3128 H             1 RES     
    1485 H           24.5604    53.6044   -14.5503 H             1 RES     
    1486 C           24.8159    52.4384   -16.3539 C             1 RES     
    1487 H           23.9896    52.9228   -16.8742 H             1 RES     
    1488 H           24.8574    51.3866   -16.6368 H             1 RES     
    1489 C           26.1387    53.1259   -16.7399 C             1 RES     
    1490 H           26.9650    52.6416   -16.2196 H             1 RES     
    1491 H           26.0973    54.1778   -16.4571 H             1 RES     
    1492 C           26.3527    53.0118   -18.2607 C             1 RES     
    1493 H           25.5264    53.4962   -18.7810 H             1 RES     
    1494 H           26.3942    51.9599   -18.5436 H             1 RES     
    1495 C           27.6755    53.6993   -18.6468 C             1 RES     
    1496 H           28.5018    53.2149   -18.1265 H             1 RES     
    1497 H           27.6341    54.7512   -18.3639 H             1 RES     
    1498 C           27.8895    53.5851   -20.1675 C             1 RES     
    1499 H           27.0632    54.0695   -20.6878 H             1 RES     
    1500 H           27.9310    52.5333   -20.4504 H             1 RES     
    1501 C           29.2124    54.2727   -20.5536 C             1 RES     
    1502 H           30.0386    53.7883   -20.0333 H             1 RES     
    1503 H           29.1709    55.3245   -20.2707 H             1 RES     
    1504 C           29.4166    54.1637   -22.0052 C             1 RES     
    1505 H           29.9382    53.2404   -21.8625 H             1 RES     
    1506 H           29.9124    54.7412   -22.7575 H             1 RES     
    1507 H           28.4118    53.9620   -22.3148 H             1 RES     
    1508 C           15.2887    51.0925    -5.3317 C             1 RES     
    1509 O           14.5941    50.0806    -5.4118 O             1 RES     
    1510 O           15.8034    51.6702    -4.0467 O             1 RES     
    1511 C           15.7094    51.8863    -6.4442 C             1 RES     
    1512 H           16.7984    51.9146    -6.4819 H             1 RES     
    1513 H           15.3231    52.8984    -6.3239 H             1 RES     
    1514 C           15.1664    51.2822    -7.7526 C             1 RES     
    1515 H           14.0774    51.2540    -7.7149 H             1 RES     
    1516 H           15.5527    50.2701    -7.8730 H             1 RES     
    1517 C           15.6162    52.1480    -8.9441 C             1 RES     
    1518 H           16.7052    52.1763    -8.9817 H             1 RES     
    1519 H           15.2299    53.1602    -8.8237 H             1 RES     
    1520 C           15.0732    51.5439   -10.2525 C             1 RES     
    1521 H           13.9842    51.5157   -10.2148 H             1 RES     
    1522 H           15.4594    50.5318   -10.3728 H             1 RES     
    1523 C           15.5229    52.4098   -11.4439 C             1 RES     
    1524 H           16.6119    52.4380   -11.4816 H             1 RES     
    1525 H           15.1367    53.4219   -11.3236 H             1 RES     
    1526 C           14.9799    51.8057   -12.7523 C             1 RES     
    1527 H           13.8910    51.7774   -12.7147 H             1 RES     
    1528 H           15.3662    50.7935   -12.8727 H             1 RES     
    1529 C           15.4297    52.6715   -13.9438 C             1 RES     
    1530 H           16.5187    52.6997   -13.9815 H             1 RES     
    1531 H           15.0434    53.6836   -13.8234 H             1 RES     
    1532 C           14.8867    52.0674   -15.2522 C             1 RES     
    1533 H           13.7977    52.0391   -15.2145 H             1 RES     
    1534 H           15.2730    51.0553   -15.3725 H             1 RES     
    1535 C           15.3365    52.9332   -16.4437 C             1 RES     
    1536 H           16.4255    52.9614   -16.4813 H             1 RES     
    1537 H           14.9502    53.9453   -16.3233 H             1 RES     
    1538 C           14.7935    52.3291   -17.7520 C             1 RES     
    1539 H           13.7045    52.3009   -17.7144 H             1 RES     
    1540 H           15.1798    51.3170   -17.8724 H             1 RES     
    1541 C           15.2433    53.1949   -18.9435 C             1 RES     
    1542 H           16.3323    53.2232   -18.9812 H             1 RES     
    1543 H           14.8570    54.2070   -18.8232 H             1 RES     
    1544 C           14.7003    52.5908   -20.2519 C             1 RES     
    1545 H           13.6113    52.5626   -20.2143 H             1 RES     
    1546 H           15.0865    51.5787   -20.3723 H             1 RES     
    1547 C           15.1500    53.4566   -21.4434 C             1 RES     
    1548 H           16.2390    53.4849   -21.4811 H             1 RES     
    1549 H           14.7638    54.4688   -21.3230 H             1 RES     
    1550 C           14.6070    52.8526   -22.7518 C             1 RES     
    1551 H           13.5180    52.8243   -22.7141 H             1 RES     
    1552 H           14.9933    51.8404   -22.8721 H             1 RES     
    1553 C           15.0568    53.7184   -23.9433 C             1 RES     
    1554 H           16.1458    53.7466   -23.9809 H             1 RES     
    1555 H           14.6705    54.7305   -23.8229 H             1 RES     
    1556 C           14.5138    53.1143   -25.2516 C             1 RES     
    1557 H           13.4248    53.0860   -25.2140 H             1 RES     
    1558 H           14.9001    52.1022   -25.3720 H             1 RES     
    1559 C           14.9431    53.9407   -26.3890 C             1 RES     
    1560 H           14.0565    54.5321   -26.2940 H             1 RES     
    1561 H           15.1518    53.7740   -27.4253 H             1 RES     
    1562 H           15.7660    54.4561   -25.9378 H             1 RES     
    1563 N           49.2950     0.0000     5.0000 N             1 RES     
    1564 C           49.7192     1.4038     5.2164 C             1 RES     
    1565 H           50.6863     1.6219     4.7159 H             1 RES     
    1566 H           49.8675     1.6139     6.2997 H             1 RES     
    1567 H           48.9561     2.1162     4.8309 H             1 RES     
    1568 C           50.3469    -0.9175     5.4991 C             1 RES     
    1569 H           50.0638    -1.9804     5.3296 H             1 RES     
    1570 H           50.5141    -0.7776     6.5909 H             1 RES     
    1571 H           51.3227    -0.7317     5.0024 H             1 RES     
    1572 C           48.0580    -0.2393     5.7821 C             1 RES     
    1573 H           48.2247    -0.0619     6.8687 H             1 RES     
    1574 H           47.7037    -1.2881     5.6630 H             1 RES     
    1575 H           47.2371     0.4372     5.4530 H             1 RES     
    1576 C           48.9879    -0.2583     3.5602 C             1 RES     
    1577 H           48.1660     0.4110     3.2192 H             1 RES     
    1578 H           48.6298    -1.3043     3.4280 H             1 RES     
    1579 C           50.1607    -0.0594     2.5893 C             1 RES     
    1580 H           50.9952    -0.7646     2.7771 H             1 RES     
    1581 H           50.5213     0.9884     2.5636 H             1 RES     
    1582 P           49.4286     0.9475     0.4251 P             1 RES     
    1583 O           49.1573     0.6355    -1.1206 O             1 RES     
    1584 O           49.9192    -0.3859     1.1609 O             1 RES     
    1585 O           50.5905     2.0462     0.4782 O             1 RES     
    1586 O           48.0356     1.4228     1.0524 O             1 RES     
    1587 C           48.7048     1.8921    -1.7698 C             1 RES     
    1588 H           49.4797     2.6520    -1.6696 H             1 RES     
    1589 H           47.7900     2.2398    -1.2898 H             1 RES     
    1590 C           48.7209     0.1526    -3.5864 C             1 RES     
    1591 H           49.7638    -0.0717    -3.3625 H             1 RES     
    1592 H           48.0740    -0.4839    -2.9827 H             1 RES     
    1593 C           48.4330     1.6304    -3.2629 C             1 RES     
    1594 H           47.3901     1.8547    -3.4869 H             1 RES     
    1595 C           49.8694     0.2363    -5.4073 C             1 RES     
    1596 O           50.7523     0.5755    -4.6210 O             1 RES     
    1597 O           48.4615    -0.0972    -5.0117 O             1 RES     
    1598 C           50.0418     0.0951    -6.8198 C             1 RES     
    1599 H           49.3607     0.7685    -7.3401 H             1 RES     
    1600 H           49.8222    -0.9344    -7.1027 H             1 RES     
    1601 C           51.4934     0.4347    -7.2058 C             1 RES     
    1602 H           52.1745    -0.2387    -6.6855 H             1 RES     
    1603 H           51.7130     1.4642    -6.9230 H             1 RES     
    1604 C           51.6726     0.2712    -8.7266 C             1 RES     
    1605 H           50.9915     0.9447    -9.2469 H             1 RES     
    1606 H           51.4530    -0.7583    -9.0095 H             1 RES     
    1607 C           53.1242     0.6109    -9.1127 C             1 RES     
    1608 H           53.8053    -0.0626    -8.5924 H             1 RES     
    1609 H           53.3438     1.6404    -8.8298 H             1 RES     
    1610 C           53.3034     0.4474   -10.6334 C             1 RES     
    1611 H           52.6223     1.1208   -11.1537 H             1 RES     
    1612 H           53.0838    -0.5821   -10.9163 H             1 RES     
    1613 C           54.7550     0.7870   -11.0195 C             1 RES     
    1614 H           55.4361     0.1136   -10.4992 H             1 RES     
    1615 H           54.9746     1.8165   -10.7366 H             1 RES     
    1616 C           54.9342     0.6235   -12.5403 C             1 RES     
    1617 H           54.2531     1.2969   -13.0606 H             1 RES     
    1618 H           54.7147    -0.4060   -12.8231 H             1 RES     
    1619 C           56.3858     0.9631   -12.9263 C             1 RES     
    1620 H           57.0669     0.2897   -12.4060 H             1 RES     
    1621 H           56.6054     1.9926   -12.6434 H             1 RES     
    1622 C           56.5650     0.7997   -14.4471 C             1 RES     
    1623 H           55.8839     1.4731   -14.9674 H             1 RES     
    1624 H           56.3455    -0.2299   -14.7299 H             1 RES     
    1625 C           58.0166     1.1393   -14.8331 C             1 RES     
    1626 H           58.6977     0.4658   -14.3128 H             1 RES     
    1627 H           58.2362     2.1688   -14.5503 H             1 RES     
    1628 C           58.1958     0.9758   -16.3539 C             1 RES     
    1629 H           57.5147     1.6492   -16.8742 H             1 RES     
    1630 H           57.9763    -0.0537   -16.6368 H             1 RES     
    1631 C           59.6474     1.3154   -16.7399 C             1 RES     
    1632 H           60.3285     0.6420   -16.2196 H             1 RES     
    1633 H           59.8670     2.3449   -16.4571 H             1 RES     
    1634 C           59.8266     1.1519   -18.2607 C             1 RES     
    1635 H           59.1455     1.8253   -18.7810 H             1 RES     
    1636 H           59.6071     0.1224   -18.5436 H             1 RES     
    1637 C           61.2782     1.4915   -18.6468 C             1 RES     
    1638 H           61.9593     0.8181   -18.1265 H             1 RES     
    1639 H           61.4978     2.5210   -18.3639 H             1 RES     
    1640 C           61.4574     1.3281   -20.1675 C             1 RES     
    1641 H           60.7763     2.0015   -20.6878 H             1 RES     
    1642 H           61.2379     0.2985   -20.4504 H             1 RES     
    1643 C           62.9090     1.6677   -20.5536 C             1 RES     
    1644 H           63.5901     0.9942   -20.0333 H             1 RES     
    1645 H           63.1286     2.6972   -20.2707 H             1 RES     
    1646 C           63.0801     1.5116   -22.0052 C             1 RES     
    1647 H           63.3575     0.4881   -21.8625 H             1 RES     
    1648 H           63.7031     1.9488   -22.7575 H             1 RES     
    1649 H           62.0565     1.5643   -22.3148 H             1 RES     
    1650 C           48.6313     2.0240    -5.3317 C             1 RES     
    1651 O           47.7083     1.2150    -5.4118 O             1 RES     
    1652 O           49.2727     2.4567    -4.0467 O             1 RES     
    1653 C           49.2350     2.6894    -6.4442 C             1 RES     
    1654 H           50.2972     2.4479    -6.4819 H             1 RES     
    1655 H           49.1106     3.7655    -6.3239 H             1 RES     
    1656 C           48.5596     2.2381    -7.7526 C             1 RES     
    1657 H           47.4974     2.4796    -7.7149 H             1 RES     
    1658 H           48.6840     1.1619    -7.8730 H             1 RES     
    1659 C           49.2092     2.9660    -8.9441 C             1 RES     
    1660 H           50.2715     2.7245    -8.9817 H             1 RES     
    1661 H           49.0848     4.0422    -8.8237 H             1 RES     
    1662 C           48.5339     2.5147   -10.2525 C             1 RES     
    1663 H           47.4716     2.7562   -10.2148 H             1 RES     
    1664 H           48.6583     1.4386   -10.3728 H             1 RES     
    1665 C           49.1835     3.2427   -11.4439 C             1 RES     
    1666 H           50.2458     3.0011   -11.4816 H             1 RES     
    1667 H           49.0591     4.3188   -11.3236 H             1 RES     
    1668 C           48.5082     2.7914   -12.7523 C             1 RES     
    1669 H           47.4459     3.0329   -12.7147 H             1 RES     
    1670 H           48.6326     1.7152   -12.8727 H             1 RES     
    1671 C           49.1578     3.5193   -13.9438 C             1 RES     
    1672 H           50.2201     3.2778   -13.9815 H             1 RES     
    1673 H           49.0334     4.5955   -13.8234 H             1 RES     
    1674 C           48.4825     3.0680   -15.2522 C             1 RES     
    1675 H           47.4202     3.3095   -15.2145 H             1 RES     
    1676 H           48.6069     1.9918   -15.3725 H             1 RES     
    1677 C           49.1321     3.7959   -16.4437 C             1 RES     
    1678 H           50.1943     3.5544   -16.4813 H             1 RES     
    1679 H           49.0077     4.8721   -16.3233 H             1 RES     
    1680 C           48.4567     3.3446   -17.7520 C             1 RES     
    1681 H           47.3945     3.5862   -17.7144 H             1 RES     
    1682 H           48.5812     2.2685   -17.8724 H             1 RES     
    1683 C           49.1064     4.0726   -18.9435 C             1 RES     
    1684 H           50.1686     3.8311   -18.9812 H             1 RES     
    1685 H           48.9820     5.1487   -18.8232 H             1 RES     
    1686 C           48.4310     3.6213   -20.2519 C             1 RES     
    1687 H           47.3688     3.8628   -20.2143 H             1 RES     
    1688 H           48.5554     2.5451   -20.3723 H             1 RES     
    1689 C           49.0807     4.3492   -21.4434 C             1 RES     
    1690 H           50.1429     4.1077   -21.4811 H             1 RES     
    1691 H           48.9563     5.4254   -21.3230 H             1 RES     
    1692 C           48.4053     3.8979   -22.7518 C             1 RES     
    1693 H           47.3431     4.1394   -22.7141 H             1 RES     
    1694 H           48.5297     2.8218   -22.8721 H             1 RES     
    1695 C           49.0550     4.6259   -23.9433 C             1 RES     
    1696 H           50.1172     4.3843   -23.9809 H             1 RES     
    1697 H           48.9306     5.7020   -23.8229 H             1 RES     
    1698 C           48.3796     4.1746   -25.2516 C             1 RES     
    1699 H           47.3174     4.4161   -25.2140 H             1 RES     
    1700 H           48.5040     3.0984   -25.3720 H             1 RES     
    1701 C           48.9997     4.8694   -26.3890 C             1 RES     
    1702 H           48.2865     5.6614   -26.2940 H             1 RES     
    1703 H           49.1607     4.6564   -27.4253 H             1 RES     
    1704 H           49.9243     5.1656   -25.9378 H             1 RES     
    1705 N           10.9545    49.2950     5.0000 N             1 RES     
    1706 C           11.3158    50.7163     5.2164 C             1 RES     
    1707 H           12.2723    50.9771     4.7159 H             1 RES     
    1708 H           11.4546    50.9328     6.2997 H             1 RES     
    1709 H           10.5218    51.3941     4.8309 H             1 RES     
    1710 C           12.0461    48.4252     5.4991 C             1 RES     
    1711 H           11.8105    47.3508     5.3296 H             1 RES     
    1712 H           12.2069    48.5723     6.5909 H             1 RES     
    1713 H           13.0126    48.6542     5.0024 H             1 RES     
    1714 C            9.7293    49.0010     5.7821 C             1 RES     
    1715 H            9.8880    49.1856     6.8687 H             1 RES     
    1716 H            9.4219    47.9375     5.6630 H             1 RES     
    1717 H            8.8792    49.6403     5.4530 H             1 RES     
    1718 C           10.6591    49.0233     3.5602 C             1 RES     
    1719 H            9.8083    49.6554     3.2192 H             1 RES     
    1720 H           10.3478    47.9625     3.4280 H             1 RES     
    1721 C           11.8219    49.2741     2.5893 C             1 RES     
    1722 H           12.6869    48.6068     2.7771 H             1 RES     
    1723 H           12.1356    50.3370     2.5636 H             1 RES     
    1724 P           11.0457    50.2475     0.4251 P             1 RES     
    1725 O           10.7886    49.9238    -1.1206 O             1 RES     
    1726 O           11.5952    48.9373     1.1609 O             1 RES     
    1727 O           12.1577    51.3967     0.4782 O             1 RES     
    1728 O            9.6330    50.6605     1.0524 O             1 RES     
    1729 C           10.2807    51.1591    -1.7698 C             1 RES     
    1730 H           11.0211    51.9527    -1.6696 H             1 RES     
    1731 H            9.3514    51.4657    -1.2898 H             1 RES     
    1732 C           10.3741    49.4219    -3.5864 C             1 RES     
    1733 H           11.4259    49.2442    -3.3625 H             1 RES     
    1734 H            9.7562    48.7573    -2.9827 H             1 RES     
    1735 C           10.0208    50.8855    -3.2629 C             1 RES     
    1736 H            8.9690    51.0632    -3.4869 H             1 RES     
    1737 C           11.5177    49.5566    -5.4073 C             1 RES     
    1738 O           12.3847    49.9347    -4.6210 O             1 RES     
    1739 O           10.1260    49.1608    -5.0117 O             1 RES     
    1740 C           11.6962    49.4232    -6.8198 C             1 RES     
    1741 H           10.9859    50.0657    -7.3401 H             1 RES     
    1742 H           11.5227    48.3850    -7.1027 H             1 RES     
    1743 C           13.1313    49.8270    -7.2058 C             1 RES     
    1744 H           13.8417    49.1845    -6.6855 H             1 RES     
    1745 H           13.3049    50.8653    -6.9230 H             1 RES     
    1746 C           13.3176    49.6717    -8.7266 C             1 RES     
    1747 H           12.6073    50.3142    -9.2469 H             1 RES     
    1748 H           13.1440    48.6334    -9.0095 H             1 RES     
    1749 C           14.7527    50.0755    -9.1127 C             1 RES     
    1750 H           15.4631    49.4330    -8.5924 H             1 RES     
    1751 H           14.9263    51.1137    -8.8298 H             1 RES     
    1752 C           14.9390    49.9201   -10.6334 C             1 RES     
    1753 H           14.2286    50.5626   -11.1537 H             1 RES     
    1754 H           14.7654    48.8819   -10.9163 H             1 RES     
    1755 C           16.3741    50.3239   -11.0195 C             1 RES     
    1756 H           17.0844    49.6814   -10.4992 H             1 RES     
    1757 H           16.5476    51.3621   -10.7366 H             1 RES     
    1758 C           16.5603    50.1685   -12.5403 C             1 RES     
    1759 H           15.8500    50.8110   -13.0606 H             1 RES     
    1760 H           16.3868    49.1303   -12.8231 H             1 RES     
    1761 C           17.9954    50.5723   -12.9263 C             1 RES     
    1762 H           18.7058    49.9298   -12.4060 H             1 RES     
    1763 H           18.1690    51.6106   -12.6434 H             1 RES     
    1764 C           18.1817    50.4170   -14.4471 C             1 RES     
    1765 H           17.4714    51.0595   -14.9674 H             1 RES     
    1766 H           18.0081    49.3787   -14.7299 H             1 RES     
    1767 C           19.6168    50.8208   -14.8331 C             1 RES     
    1768 H           20.3272    50.1783   -14.3128 H             1 RES     
    1769 H           19.7904    51.8590   -14.5503 H             1 RES     
    1770 C           19.8031    50.6654   -16.3539 C             1 RES     
    1771 H           19.0927    51.3079   -16.8742 H             1 RES     
    1772 H           19.6295    49.6272   -16.6368 H             1 RES     
    1773 C           21.2382    51.0692   -16.7399 C             1 RES     
    1774 H           21.9485    50.4267   -16.2196 H             1 RES     
    1775 H           21.4117    52.1075   -16.4571 H             1 RES     
    1776 C           21.4244    50.9139   -18.2607 C             1 RES     
    1777 H           20.7141    51.5563   -18.7810 H             1 RES     
    1778 H           21.2509    49.8756   -18.5436 H             1 RES     
    1779 C           22.8595    51.3176   -18.6468 C             1 RES     
    1780 H           23.5699    50.6752   -18.1265 H             1 RES     
    1781 H           23.0331    52.3559   -18.3639 H             1 RES     
    1782 C           23.0458    51.1623   -20.1675 C             1 RES     
    1783 H           22.3354    51.8048   -20.6878 H             1 RES     
    1784 H           22.8722    50.1240   -20.4504 H             1 RES     
    1785 C           24.4809    51.5661   -20.5536 C             1 RES     
    1786 H           25.1913    50.9236   -20.0333 H             1 RES     
    1787 H           24.6545    52.6043   -20.2707 H             1 RES     
    1788 C           24.6587    51.4178   -22.0052 C             1 RES     
    1789 H           24.9813    50.4076   -21.8625 H             1 RES     
    1790 H           25.2616    51.8822   -22.7575 H             1 RES     
    1791 H           23.6338    51.4249   -22.3148 H             1 RES     
    1792 C           10.2014    51.2876    -5.3317 C             1 RES     
    1793 O            9.3153    50.4383    -5.4118 O             1 RES     
    1794 O           10.8230    51.7483    -4.0467 O             1 RES     
    1795 C           10.7749    51.9791    -6.4442 C             1 RES     
    1796 H           11.8468    51.7850    -6.4819 H             1 RES     
    1797 H           10.6028    53.0487    -6.3239 H             1 RES     
    1798 C           10.1203    51.4982    -7.7526 C             1 RES     
    1799 H            9.0484    51.6923    -7.7149 H             1 RES     
    1800 H           10.2924    50.4286    -7.8730 H             1 RES     
    1801 C           10.7369    52.2543    -8.9441 C             1 RES     
    1802 H           11.8089    52.0602    -8.9817 H             1 RES     
    1803 H           10.5648    53.3239    -8.8237 H             1 RES     
    1804 C           10.0823    51.7734   -10.2525 C             1 RES     
    1805 H            9.0104    51.9675   -10.2148 H             1 RES     
    1806 H           10.2544    50.7039   -10.3728 H             1 RES     
    1807 C           10.6990    52.5295   -11.4439 C             1 RES     
    1808 H           11.7709    52.3355   -11.4816 H             1 RES     
    1809 H           10.5268    53.5991   -11.3236 H             1 RES     
    1810 C           10.0443    52.0487   -12.7523 C             1 RES     
    1811 H            8.9724    52.2427   -12.7147 H             1 RES     
    1812 H           10.2164    50.9791   -12.8727 H             1 RES     
    1813 C           10.6610    52.8048   -13.9438 C             1 RES     
    1814 H           11.7329    52.6107   -13.9815 H             1 RES     
    1815 H           10.4889    53.8743   -13.8234 H             1 RES     
    1816 C           10.0063    52.3239   -15.2522 C             1 RES     
    1817 H            8.9344    52.5180   -15.2145 H             1 RES     
    1818 H           10.1784    51.2543   -15.3725 H             1 RES     
    1819 C           10.6230    53.0800   -16.4437 C             1 RES     
    1820 H           11.6949    52.8859   -16.4813 H             1 RES     
    1821 H           10.4509    54.1495   -16.3233 H             1 RES     
    1822 C            9.9684    52.5991   -17.7520 C             1 RES     
    1823 H            8.8964    52.7932   -17.7144 H             1 RES     
    1824 H           10.1405    51.5295   -17.8724 H             1 RES     
    1825 C           10.5850    53.3552   -18.9435 C             1 RES     
    1826 H           11.6569    53.1611   -18.9812 H             1 RES     
    1827 H           10.4129    54.4248   -18.8232 H             1 RES     
    1828 C            9.9304    52.8743   -20.2519 C             1 RES     
    1829 H            8.8584    53.0684   -20.2143 H             1 RES     
    1830 H           10.1025    51.8048   -20.3723 H             1 RES     
    1831 C           10.5470    53.6304   -21.4434 C             1 RES     
    1832 H           11.6189    53.4364   -21.4811 H             1 RES     
    1833 H           10.3749    54.7000   -21.3230 H             1 RES     
    1834 C            9.8924    53.1496   -22.7518 C             1 RES     
    1835 H            8.8205    53.3436   -22.7141 H             1 RES     
    1836 H           10.0645    52.0800   -22.8721 H             1 RES     
    1837 C           10.5090    53.9056   -23.9433 C             1 RES     
    1838 H           11.5810    53.7116   -23.9809 H             1 RES     
    1839 H           10.3369    54.9752   -23.8229 H             1 RES     
    1840 C            9.8544    53.4248   -25.2516 C             1 RES     
    1841 H            8.7825    53.6188   -25.2140 H             1 RES     
    1842 H           10.0265    52.3552   -25.3720 H             1 RES     
    1843 C           10.4430    54.1465   -26.3890 C             1 RES     
    1844 H            9.6953    54.9060   -26.2940 H             1 RES     
    1845 H           10.6134    53.9408   -27.4253 H             1 RES     
    1846 H           11.3536    54.4835   -25.9378 H             1 RES     
    1847 N           32.8634     0.0000     5.0000 N             1 RES     
    1848 C           32.6137     1.4451     5.2164 C             1 RES     
    1849 H           33.3806     2.0733     4.7159 H             1 RES     
    1850 H           32.6521     1.6993     6.2997 H             1 RES     
    1851 H           31.6122     1.7401     4.8309 H             1 RES     
    1852 C           34.2148    -0.3490     5.4991 C             1 RES     
    1853 H           34.4379    -1.4261     5.3296 H             1 RES     
    1854 H           34.3017    -0.1490     6.5909 H             1 RES     
    1855 H           35.0039     0.2543     5.0024 H             1 RES     
    1856 C           31.8646    -0.7682     5.7821 C             1 RES     
    1857 H           31.9343    -0.5349     6.8687 H             1 RES     
    1858 H           32.0178    -1.8646     5.6630 H             1 RES     
    1859 H           30.8277    -0.5311     5.4530 H             1 RES     
    1860 C           32.7045    -0.3685     3.5602 C             1 RES     
    1861 H           31.6699    -0.1384     3.2192 H             1 RES     
    1862 H           32.8530    -1.4641     3.4280 H             1 RES     
    1863 C           33.6639     0.3347     2.5893 C             1 RES     
    1864 H           34.7259     0.0782     2.7771 H             1 RES     
    1865 H           33.5168     1.4331     2.5636 H             1 RES     
    1866 P           32.5583     0.9069     0.4251 P             1 RES     
    1867 O           32.4554     0.5064    -1.1206 O             1 RES     
    1868 O           33.5943    -0.0653     1.1609 O             1 RES     
    1869 O           33.1048     2.4097     0.4782 O             1 RES     
    1870 O           31.0999     0.7078     1.0524 O             1 RES     
    1871 C           31.4879     1.4271    -1.7698 C             1 RES     
    1872 H           31.8403     2.4537    -1.6696 H             1 RES     
    1873 H           30.5143     1.3281    -1.2898 H             1 RES     
    1874 C           32.2817    -0.1208    -3.5864 C             1 RES     
    1875 H           33.3145     0.1459    -3.3625 H             1 RES     
    1876 H           31.9886    -0.9797    -2.9827 H             1 RES     
    1877 C           31.3622     1.0714    -3.2629 C             1 RES     
    1878 H           30.3294     0.8047    -3.4869 H             1 RES     
    1879 C           33.2710     0.4686    -5.4073 C             1 RES     
    1880 O           33.9083     1.1674    -4.6210 O             1 RES     
    1881 O           32.1617    -0.4604    -5.0117 O             1 RES     
    1882 C           33.4884     0.4196    -6.8198 C             1 RES     
    1883 H           32.5777     0.7165    -7.3401 H             1 RES     
    1884 H           33.7533    -0.5992    -7.1027 H             1 RES     
    1885 C           34.6340     1.3736    -7.2058 C             1 RES     
    1886 H           35.5446     1.0767    -6.6855 H             1 RES     
    1887 H           34.3690     2.3923    -6.9230 H             1 RES     
    1888 C           34.8674     1.3077    -8.7266 C             1 RES     
    1889 H           33.9568     1.6046    -9.2469 H             1 RES     
    1890 H           35.1324     0.2889    -9.0095 H             1 RES     
    1891 C           36.0130     2.2617    -9.1127 C             1 RES     
    1892 H           36.9237     1.9648    -8.5924 H             1 RES     
    1893 H           35.7481     3.2805    -8.8298 H             1 RES     
    1894 C           36.2465     2.1958   -10.6334 C             1 RES     
    1895 H           35.3359     2.4927   -11.1537 H             1 RES     
    1896 H           36.5114     1.1771   -10.9163 H             1 RES     
    1897 C           37.3921     3.1498   -11.0195 C             1 RES     
    1898 H           38.3027     2.8529   -10.4992 H             1 RES     
    1899 H           37.1271     4.1686   -10.7366 H             1 RES     
    1900 C           37.6255     3.0839   -12.5403 C             1 RES     
    1901 H           36.7149     3.3808   -13.0606 H             1 RES     
    1902 H           37.8905     2.0652   -12.8231 H             1 RES     
    1903 C           38.7712     4.0379   -12.9263 C             1 RES     
    1904 H           39.6818     3.7410   -12.4060 H             1 RES     
    1905 H           38.5062     5.0567   -12.6434 H             1 RES     
    1906 C           39.0046     3.9720   -14.4471 C             1 RES     
    1907 H           38.0940     4.2689   -14.9674 H             1 RES     
    1908 H           39.2696     2.9533   -14.7299 H             1 RES     
    1909 C           40.1502     4.9260   -14.8331 C             1 RES     
    1910 H           41.0609     4.6291   -14.3128 H             1 RES     
    1911 H           39.8853     5.9448   -14.5503 H             1 RES     
    1912 C           40.3837     4.8601   -16.3539 C             1 RES     
    1913 H           39.4730     5.1571   -16.8742 H             1 RES     
    1914 H           40.6486     3.8414   -16.6368 H             1 RES     
    1915 C           41.5293     5.8141   -16.7399 C             1 RES     
    1916 H           42.4399     5.5172   -16.2196 H             1 RES     
    1917 H           41.2643     6.8329   -16.4571 H             1 RES     
    1918 C           41.7627     5.7483   -18.2607 C             1 RES     
    1919 H           40.8521     6.0452   -18.7810 H             1 RES     
    1920 H           42.0277     4.7295   -18.5436 H             1 RES     
    1921 C           42.9083     6.7022   -18.6468 C             1 RES     
    1922 H           43.8190     6.4053   -18.1265 H             1 RES     
    1923 H           42.6434     7.7210   -18.3639 H             1 RES     
    1924 C           43.1418     6.6364   -20.1675 C             1 RES     
    1925 H           42.2312     6.9333   -20.6878 H             1 RES     
    1926 H           43.4067     5.6176   -20.4504 H             1 RES     
    1927 C           44.2874     7.5904   -20.5536 C             1 RES     
    1928 H           45.1980     7.2935   -20.0333 H             1 RES     
    1929 H           44.0224     8.6091   -20.2707 H             1 RES     
    1930 C           44.5102     7.5275   -22.0052 C             1 RES     
    1931 H           45.2168     6.7367   -21.8625 H             1 RES     
    1932 H           44.8713     8.1974   -22.7575 H             1 RES     
    1933 H           43.5716     7.1160   -22.3148 H             1 RES     
    1934 C           31.3632     1.5122    -5.3317 C             1 RES     
    1935 O           30.9005     0.3753    -5.4118 O             1 RES     
    1936 O           31.7427     2.1864    -4.0467 O             1 RES     
    1937 C           31.6047     2.3775    -6.4442 C             1 RES     
    1938 H           32.6626     2.6374    -6.4819 H             1 RES     
    1939 H           31.0114     3.2838    -6.3239 H             1 RES     
    1940 C           31.2031     1.6714    -7.7526 C             1 RES     
    1941 H           30.1453     1.4114    -7.7149 H             1 RES     
    1942 H           31.7965     0.7650    -7.8730 H             1 RES     
    1943 C           31.4578     2.6133    -8.9441 C             1 RES     
    1944 H           32.5157     2.8732    -8.9817 H             1 RES     
    1945 H           30.8644     3.5196    -8.8237 H             1 RES     
    1946 C           31.0562     1.9072   -10.2525 C             1 RES     
    1947 H           29.9983     1.6472   -10.2148 H             1 RES     
    1948 H           31.6496     1.0008   -10.3728 H             1 RES     
    1949 C           31.3109     2.8491   -11.4439 C             1 RES     
    1950 H           32.3687     3.1090   -11.4816 H             1 RES     
    1951 H           30.7175     3.7554   -11.3236 H             1 RES     
    1952 C           30.9093     2.1430   -12.7523 C             1 RES     
    1953 H           29.8514     1.8830   -12.7147 H             1 RES     
    1954 H           31.5027     1.2366   -12.8727 H             1 RES     
    1955 C           31.1640     3.0849   -13.9438 C             1 RES     
    1956 H           32.2218     3.3448   -13.9815 H             1 RES     
    1957 H           30.5706     3.9912   -13.8234 H             1 RES     
    1958 C           30.7624     2.3788   -15.2522 C             1 RES     
    1959 H           29.7045     2.1188   -15.2145 H             1 RES     
    1960 H           31.3557     1.4724   -15.3725 H             1 RES     
    1961 C           31.0170     3.3207   -16.4437 C             1 RES     
    1962 H           32.0749     3.5806   -16.4813 H             1 RES     
    1963 H           30.4236     4.2270   -16.3233 H             1 RES     
    1964 C           30.6154     2.6146   -17.7520 C             1 RES     
    1965 H           29.5576     2.3546   -17.7144 H             1 RES     
    1966 H           31.2088     1.7082   -17.8724 H             1 RES     
    1967 C           30.8701     3.5565   -18.9435 C             1 RES     
    1968 H           31.9280     3.8164   -18.9812 H             1 RES     
    1969 H           30.2767     4.4628   -18.8232 H             1 RES     
    1970 C           30.4685     2.8504   -20.2519 C             1 RES     
    1971 H           29.4106     2.5904   -20.2143 H             1 RES     
    1972 H           31.0619     1.9440   -20.3723 H             1 RES     
    1973 C           30.7232     3.7923   -21.4434 C             1 RES     
    1974 H           31.7810     4.0522   -21.4811 H             1 RES     
    1975 H           30.1298     4.6986   -21.3230 H             1 RES     
    1976 C           30.3216     3.0862   -22.7518 C             1 RES     
    1977 H           29.2637     2.8262   -22.7141 H             1 RES     
    1978 H           30.9149     2.1798   -22.8721 H             1 RES     
    1979 C           30.5762     4.0281   -23.9433 C             1 RES     
    1980 H           31.6341     4.2880   -23.9809 H             1 RES     
    1981 H           29.9829     4.9344   -23.8229 H             1 RES     
    1982 C           30.1746     3.3220   -25.2516 C             1 RES     
    1983 H           29.1168     3.0620   -25.2140 H             1 RES     
    1984 H           30.7680     2.4156   -25.3720 H             1 RES     
    1985 C           30.4177     4.2210   -26.3890 C             1 RES     
    1986 H           29.4253     4.6095   -26.2940 H             1 RES     
    1987 H           30.6571     4.1027   -27.4253 H             1 RES     
    1988 H           31.1116     4.9001   -25.9378 H             1 RES     
    1989 N           43.8178    21.9089     5.0000 N             1 RES     
    1990 C           44.1301    23.3417     5.2164 C             1 RES     
    1991 H           45.0770    23.6353     4.7159 H             1 RES     
    1992 H           44.2614    23.5629     6.2997 H             1 RES     
    1993 H           43.3132    23.9918     4.8309 H             1 RES     
    1994 C           44.9387    21.0771     5.4991 C             1 RES     
    1995 H           44.7402    19.9952     5.3296 H             1 RES     
    1996 H           45.0944    21.2297     6.5909 H             1 RES     
    1997 H           45.8968    21.3392     5.0024 H             1 RES     
    1998 C           42.6035    21.5729     5.7821 C             1 RES     
    1999 H           42.7557    21.7628     6.8687 H             1 RES     
    2000 H           42.3329    20.4994     5.6630 H             1 RES     
    2001 H           41.7319    22.1826     5.4530 H             1 RES     
    2002 C           43.5320    21.6272     3.5602 C             1 RES     
    2003 H           42.6599    22.2296     3.2192 H             1 RES     
    2004 H           43.2574    20.5563     3.4280 H             1 RES     
    2005 C           44.6854    21.9178     2.5893 C             1 RES     
    2006 H           45.5729    21.2807     2.7771 H             1 RES     
    2007 H           44.9624    22.9908     2.5636 H             1 RES     
    2008 P           43.8763    22.8639     0.4251 P             1 RES     
    2009 O           43.6304    22.5316    -1.1206 O             1 RES     
    2010 O           44.4705    21.5734     1.1609 O             1 RES     
    2011 O           44.9480    24.0507     0.4782 O             1 RES     
    2012 O           42.4502    23.2281     1.0524 O             1 RES     
    2013 C           43.0803    23.7487    -1.7698 C             1 RES     
    2014 H           43.7930    24.5673    -1.6696 H             1 RES     
    2015 H           42.1410    24.0232    -1.2898 H             1 RES     
    2016 C           43.2334    22.0158    -3.5864 C             1 RES     
    2017 H           44.2907    21.8743    -3.3625 H             1 RES     
    2018 H           42.6387    21.3303    -2.9827 H             1 RES     
    2019 C           42.8301    23.4664    -3.2629 C             1 RES     
    2020 H           41.7727    23.6078    -3.4869 H             1 RES     
    2021 C           44.3718    22.1897    -5.4073 C             1 RES     
    2022 O           45.2252    22.5974    -4.6210 O             1 RES     
    2023 O           42.9945    21.7463    -5.0117 O             1 RES     
    2024 C           44.5547    22.0625    -6.8198 C             1 RES     
    2025 H           43.8227    22.6802    -7.3401 H             1 RES     
    2026 H           44.4170    21.0189    -7.1027 H             1 RES     
    2027 C           45.9751    22.5154    -7.2058 C             1 RES     
    2028 H           46.7071    21.8978    -6.6855 H             1 RES     
    2029 H           46.1129    23.5590    -6.9230 H             1 RES     
    2030 C           46.1666    22.3666    -8.7266 C             1 RES     
    2031 H           45.4346    22.9843    -9.2469 H             1 RES     
    2032 H           46.0288    21.3230    -9.0095 H             1 RES     
    2033 C           47.5870    22.8195    -9.1127 C             1 RES     
    2034 H           48.3190    22.2018    -8.5924 H             1 RES     
    2035 H           47.7247    23.8631    -8.8298 H             1 RES     
    2036 C           47.7785    22.6706   -10.6334 C             1 RES     
    2037 H           47.0464    23.2883   -11.1537 H             1 RES     
    2038 H           47.6407    21.6270   -10.9163 H             1 RES     
    2039 C           49.1988    23.1235   -11.0195 C             1 RES     
    2040 H           49.9309    22.5059   -10.4992 H             1 RES     
    2041 H           49.3366    24.1671   -10.7366 H             1 RES     
    2042 C           49.3903    22.9747   -12.5403 C             1 RES     
    2043 H           48.6583    23.5924   -13.0606 H             1 RES     
    2044 H           49.2526    21.9311   -12.8231 H             1 RES     
    2045 C           50.8107    23.4276   -12.9263 C             1 RES     
    2046 H           51.5427    22.8099   -12.4060 H             1 RES     
    2047 H           50.9485    24.4712   -12.6434 H             1 RES     
    2048 C           51.0022    23.2787   -14.4471 C             1 RES     
    2049 H           50.2702    23.8964   -14.9674 H             1 RES     
    2050 H           50.8644    22.2351   -14.7299 H             1 RES     
    2051 C           52.4226    23.7316   -14.8331 C             1 RES     
    2052 H           53.1546    23.1139   -14.3128 H             1 RES     
    2053 H           52.5603    24.7752   -14.5503 H             1 RES     
    2054 C           52.6141    23.5828   -16.3539 C             1 RES     
    2055 H           51.8820    24.2005   -16.8742 H             1 RES     
    2056 H           52.4763    22.5392   -16.6368 H             1 RES     
    2057 C           54.0344    24.0357   -16.7399 C             1 RES     
    2058 H           54.7665    23.4180   -16.2196 H             1 RES     
    2059 H           54.1722    25.0793   -16.4571 H             1 RES     
    2060 C           54.2259    23.8868   -18.2607 C             1 RES     
    2061 H           53.4939    24.5045   -18.7810 H             1 RES     
    2062 H           54.0882    22.8432   -18.5436 H             1 RES     
    2063 C           55.6463    24.3397   -18.6468 C             1 RES     
    2064 H           56.3783    23.7220   -18.1265 H             1 RES     
    2065 H           55.7841    25.3833   -18.3639 H             1 RES     
    2066 C           55.8378    24.1909   -20.1675 C             1 RES     
    2067 H           55.1058    24.8086   -20.6878 H             1 RES     
    2068 H           55.7000    23.1473   -20.4504 H             1 RES     
    2069 C           57.2582    24.6438   -20.5536 C             1 RES     
    2070 H           57.9902    24.0261   -20.0333 H             1 RES     
    2071 H           57.3959    25.6874   -20.2707 H             1 RES     
    2072 C           57.4409    24.5017   -22.0052 C             1 RES     
    2073 H           57.7981    23.5032   -21.8625 H             1 RES     
    2074 H           58.0276    24.9866   -22.7575 H             1 RES     
    2075 H           56.4164    24.4735   -22.3148 H             1 RES     
    2076 C           42.9967    23.8744    -5.3317 C             1 RES     
    2077 O           42.1403    22.9951    -5.4118 O             1 RES     
    2078 O           43.6021    24.3562    -4.0467 O             1 RES     
    2079 C           43.5461    24.5852    -6.4442 C             1 RES     
    2080 H           44.6240    24.4281    -6.4819 H             1 RES     
    2081 H           43.3373    25.6482    -6.3239 H             1 RES     
    2082 C           42.9084    24.0821    -7.7526 C             1 RES     
    2083 H           41.8304    24.2392    -7.7149 H             1 RES     
    2084 H           43.1172    23.0191    -7.8730 H             1 RES     
    2085 C           43.4987    24.8589    -8.9441 C             1 RES     
    2086 H           44.5766    24.7019    -8.9817 H             1 RES     
    2087 H           43.2899    25.9220    -8.8237 H             1 RES     
    2088 C           42.8609    24.3559   -10.2525 C             1 RES     
    2089 H           41.7830    24.5130   -10.2148 H             1 RES     
    2090 H           43.0697    23.2928   -10.3728 H             1 RES     
    2091 C           43.4512    25.1327   -11.4439 C             1 RES     
    2092 H           44.5292    24.9756   -11.4816 H             1 RES     
    2093 H           43.2424    26.1957   -11.3236 H             1 RES     
    2094 C           42.8135    24.6296   -12.7523 C             1 RES     
    2095 H           41.7356    24.7867   -12.7147 H             1 RES     
    2096 H           43.0223    23.5666   -12.8727 H             1 RES     
    2097 C           43.4038    25.4065   -13.9438 C             1 RES     
    2098 H           44.4818    25.2494   -13.9815 H             1 RES     
    2099 H           43.1950    26.4695   -13.8234 H             1 RES     
    2100 C           42.7661    24.9034   -15.2522 C             1 RES     
    2101 H           41.6881    25.0605   -15.2145 H             1 RES     
    2102 H           42.9749    23.8403   -15.3725 H             1 RES     
    2103 C           43.3564    25.6802   -16.4437 C             1 RES     
    2104 H           44.4343    25.5231   -16.4813 H             1 RES     
    2105 H           43.1476    26.7432   -16.3233 H             1 RES     
    2106 C           42.7187    25.1771   -17.7520 C             1 RES     
    2107 H           41.6407    25.3342   -17.7144 H             1 RES     
    2108 H           42.9275    24.1141   -17.8724 H             1 RES     
    2109 C           43.3090    25.9540   -18.9435 C             1 RES     
    2110 H           44.3869    25.7969   -18.9812 H             1 RES     
    2111 H           43.1002    27.0170   -18.8232 H             1 RES     
    2112 C           42.6712    25.4509   -20.2519 C             1 RES     
    2113 H           41.5933    25.6080   -20.2143 H             1 RES     
    2114 H           42.8800    24.3878   -20.3723 H             1 RES     
    2115 C           43.2615    26.2277   -21.4434 C             1 RES     
    2116 H           44.3395    26.0706   -21.4811 H             1 RES     
    2117 H           43.0527    27.2907   -21.3230 H             1 RES     
    2118 C           42.6238    25.7246   -22.7518 C             1 RES     
    2119 H           41.5459    25.8817   -22.7141 H             1 RES     
    2120 H           42.8326    24.6616   -22.8721 H             1 RES     
    2121 C           43.2141    26.5015   -23.9433 C             1 RES     
    2122 H           44.2921    26.3444   -23.9809 H             1 RES     
    2123 H           43.0053    27.5645   -23.8229 H             1 RES     
    2124 C           42.5764    25.9984   -25.2516 C             1 RES     
    2125 H           41.4984    26.1555   -25.2140 H             1 RES     
    2126 H           42.7852    24.9354   -25.3720 H             1 RES     
    2127 C           43.1399    26.7399   -26.3890 C             1 RES     
    2128 H           42.3665    27.4732   -26.2940 H             1 RES     
    2129 H           43.3171    26.5402   -27.4253 H             1 RES     
    2130 H           44.0383    27.1081   -25.9378 H             1 RES     
    2131 N           16.4317     0.0000     5.0000 N             1 RES     
    2132 C           16.7941     1.4210     5.2164 C             1 RES     
    2133 H           17.7508     1.6811     4.7159 H             1 RES     
    2134 H           16.9331     1.6374     6.2997 H             1 RES     
    2135 H           16.0006     2.0993     4.8309 H             1 RES     
    2136 C           17.5227    -0.8707     5.4991 C             1 RES     
    2137 H           17.2863    -1.9449     5.3296 H             1 RES     
    2138 H           17.6836    -0.7236     6.5909 H             1 RES     
    2139 H           18.4894    -0.6424     5.0024 H             1 RES     
    2140 C           15.2063    -0.2932     5.7821 C             1 RES     
    2141 H           15.3651    -0.1087     6.8687 H             1 RES     
    2142 H           14.8981    -1.3564     5.6630 H             1 RES     
    2143 H           14.3566     0.3468     5.4530 H             1 RES     
    2144 C           16.1362    -0.2715     3.5602 C             1 RES     
    2145 H           15.2858     0.3612     3.2192 H             1 RES     
    2146 H           15.8241    -1.3321     3.4280 H             1 RES     
    2147 C           17.2991    -0.0216     2.5893 C             1 RES     
    2148 H           18.1636    -0.6895     2.7771 H             1 RES     
    2149 H           17.6136     1.0411     2.5636 H             1 RES     
    2150 P           16.5237     0.9524     0.4251 P             1 RES     
    2151 O           16.2663     0.6289    -1.1206 O             1 RES     
    2152 O           17.0722    -0.3582     1.1609 O             1 RES     
    2153 O           17.6365     2.1008     0.4782 O             1 RES     
    2154 O           15.1112     1.3664     1.0524 O             1 RES     
    2155 C           15.7593     1.8645    -1.7698 C             1 RES     
    2156 H           16.5003     2.6576    -1.6696 H             1 RES     
    2157 H           14.8302     2.1719    -1.2898 H             1 RES     
    2158 C           15.8514     0.1273    -3.5864 C             1 RES     
    2159 H           16.9031    -0.0511    -3.3625 H             1 RES     
    2160 H           15.2330    -0.5368    -2.9827 H             1 RES     
    2161 C           15.4992     1.5912    -3.2629 C             1 RES     
    2162 H           14.4475     1.7697    -3.4869 H             1 RES     
    2163 C           16.9951     0.2612    -5.4073 C             1 RES     
    2164 O           17.8624     0.6386    -4.6210 O             1 RES     
    2165 O           15.6032    -0.1336    -5.0117 O             1 RES     
    2166 C           17.1736     0.1277    -6.8198 C             1 RES     
    2167 H           16.4637     0.7707    -7.3401 H             1 RES     
    2168 H           16.9992    -0.9105    -7.1027 H             1 RES     
    2169 C           18.6090     0.5304    -7.2058 C             1 RES     
    2170 H           19.3188    -0.1126    -6.6855 H             1 RES     
    2171 H           18.7833     1.5685    -6.9230 H             1 RES     
    2172 C           18.7951     0.3749    -8.7266 C             1 RES     
    2173 H           18.0852     1.0179    -9.2469 H             1 RES     
    2174 H           18.6208    -0.6632    -9.0095 H             1 RES     
    2175 C           20.2305     0.7776    -9.1127 C             1 RES     
    2176 H           20.9404     0.1346    -8.5924 H             1 RES     
    2177 H           20.4048     1.8158    -8.8298 H             1 RES     
    2178 C           20.4167     0.6221   -10.6334 C             1 RES     
    2179 H           19.7068     1.2651   -11.1537 H             1 RES     
    2180 H           20.2423    -0.4160   -10.9163 H             1 RES     
    2181 C           21.8521     1.0249   -11.0195 C             1 RES     
    2182 H           22.5619     0.3819   -10.4992 H             1 RES     
    2183 H           22.0264     2.0630   -10.7366 H             1 RES     
    2184 C           22.0382     0.8694   -12.5403 C             1 RES     
    2185 H           21.3283     1.5124   -13.0606 H             1 RES     
    2186 H           21.8639    -0.1687   -12.8231 H             1 RES     
    2187 C           23.4736     1.2721   -12.9263 C             1 RES     
    2188 H           24.1835     0.6291   -12.4060 H             1 RES     
    2189 H           23.6479     2.3102   -12.6434 H             1 RES     
    2190 C           23.6598     1.1166   -14.4471 C             1 RES     
    2191 H           22.9499     1.7596   -14.9674 H             1 RES     
    2192 H           23.4854     0.0785   -14.7299 H             1 RES     
    2193 C           25.0952     1.5194   -14.8331 C             1 RES     
    2194 H           25.8050     0.8763   -14.3128 H             1 RES     
    2195 H           25.2695     2.5575   -14.5503 H             1 RES     
    2196 C           25.2813     1.3639   -16.3539 C             1 RES     
    2197 H           24.5714     2.0069   -16.8742 H             1 RES     
    2198 H           25.1070     0.3257   -16.6368 H             1 RES     
    2199 C           26.7167     1.7666   -16.7399 C             1 RES     
    2200 H           27.4266     1.1236   -16.2196 H             1 RES     
    2201 H           26.8910     2.8047   -16.4571 H             1 RES     
    2202 C           26.9028     1.6111   -18.2607 C             1 RES     
    2203 H           26.1930     2.2541   -18.7810 H             1 RES     
    2204 H           26.7285     0.5730   -18.5436 H             1 RES     
    2205 C           28.3383     2.0138   -18.6468 C             1 RES     
    2206 H           29.0481     1.3708   -18.1265 H             1 RES     
    2207 H           28.5126     3.0520   -18.3639 H             1 RES     
    2208 C           28.5244     1.8583   -20.1675 C             1 RES     
    2209 H           27.8145     2.5014   -20.6878 H             1 RES     
    2210 H           28.3501     0.8202   -20.4504 H             1 RES     
    2211 C           29.9598     2.2611   -20.5536 C             1 RES     
    2212 H           30.6697     1.6181   -20.0333 H             1 RES     
    2213 H           30.1341     3.2992   -20.2707 H             1 RES     
    2214 C           30.1375     2.1127   -22.0052 C             1 RES     
    2215 H           30.4594     1.1022   -21.8625 H             1 RES     
    2216 H           30.7408     2.5766   -22.7575 H             1 RES     
    2217 H           29.1126     2.1205   -22.3148 H             1 RES     
    2218 C           15.6801     1.9931    -5.3317 C             1 RES     
    2219 O           14.7934     1.1445    -5.4118 O             1 RES     
    2220 O           16.3020     2.4534    -4.0467 O             1 RES     
    2221 C           16.2541     2.6842    -6.4442 C             1 RES     
    2222 H           17.3259     2.4893    -6.4819 H             1 RES     
    2223 H           16.0828     3.7539    -6.3239 H             1 RES     
    2224 C           15.5991     2.2038    -7.7526 C             1 RES     
    2225 H           14.5274     2.3987    -7.7149 H             1 RES     
    2226 H           15.7705     1.1341    -7.8730 H             1 RES     
    2227 C           16.2163     2.9594    -8.9441 C             1 RES     
    2228 H           17.2881     2.7646    -8.9817 H             1 RES     
    2229 H           16.0450     4.0291    -8.8237 H             1 RES     
    2230 C           15.5614     2.4791   -10.2525 C             1 RES     
    2231 H           14.4896     2.6739   -10.2148 H             1 RES     
    2232 H           15.7327     1.4094   -10.3728 H             1 RES     
    2233 C           16.1786     3.2347   -11.4439 C             1 RES     
    2234 H           17.2503     3.0398   -11.4816 H             1 RES     
    2235 H           16.0072     4.3044   -11.3236 H             1 RES     
    2236 C           15.5236     2.7543   -12.7523 C             1 RES     
    2237 H           14.4518     2.9492   -12.7147 H             1 RES     
    2238 H           15.6949     1.6846   -12.8727 H             1 RES     
    2239 C           16.1408     3.5099   -13.9438 C             1 RES     
    2240 H           17.2126     3.3151   -13.9815 H             1 RES     
    2241 H           15.9695     4.5796   -13.8234 H             1 RES     
    2242 C           15.4858     3.0296   -15.2522 C             1 RES     
    2243 H           14.4140     3.2244   -15.2145 H             1 RES     
    2244 H           15.6571     1.9599   -15.3725 H             1 RES     
    2245 C           16.1030     3.7852   -16.4437 C             1 RES     
    2246 H           17.1748     3.5903   -16.4813 H             1 RES     
    2247 H           15.9317     4.8549   -16.3233 H             1 RES     
    2248 C           15.4480     3.3048   -17.7520 C             1 RES     
    2249 H           14.3762     3.4997   -17.7144 H             1 RES     
    2250 H           15.6193     2.2351   -17.8724 H             1 RES     
    2251 C           16.0652     4.0604   -18.9435 C             1 RES     
    2252 H           17.1370     3.8656   -18.9812 H             1 RES     
    2253 H           15.8939     5.1301   -18.8232 H             1 RES     
    2254 C           15.4102     3.5801   -20.2519 C             1 RES     
    2255 H           14.3385     3.7749   -20.2143 H             1 RES     
    2256 H           15.5816     2.5104   -20.3723 H             1 RES     
    2257 C           16.0274     4.3357   -21.4434 C             1 RES     
    2258 H           17.0992     4.1408   -21.4811 H             1 RES     
    2259 H           15.8561     5.4054   -21.3230 H             1 RES     
    2260 C           15.3725     3.8553   -22.7518 C             1 RES     
    2261 H           14.3007     4.0502   -22.7141 H             1 RES     
    2262 H           15.5438     2.7856   -22.8721 H             1 RES     
    2263 C           15.9897     4.6109   -23.9433 C             1 RES     
    2264 H           17.0614     4.4161   -23.9809 H             1 RES     
    2265 H           15.8183     5.6806   -23.8229 H             1 RES     
    2266 C           15.3347     4.1306   -25.2516 C             1 RES     
    2267 H           14.2629     4.3254   -25.2140 H             1 RES     
    2268 H           15.5060     3.0609   -25.3720 H             1 RES     
    2269 C           15.9238     4.8518   -26.3890 C             1 RES     
    2270 H           15.1767     5.6119   -26.2940 H             1 RES     
    2271 H           16.0940     4.6460   -27.4253 H             1 RES     
    2272 H           16.8346     5.1882   -25.9378 H             1 RES     
    2273 N            5.4772    10.9545     5.0000 N             1 RES     
    2274 C            5.7461    12.3961     5.2164 C             1 RES     
    2275 H            6.6838    12.7181     4.7159 H             1 RES     
    2276 H            5.8707    12.6211     6.2997 H             1 RES     
    2277 H            4.9100    13.0212     4.8309 H             1 RES     
    2278 C            6.6227    10.1568     5.4991 C             1 RES     
    2279 H            6.4570     9.0695     5.3296 H             1 RES     
    2280 H            6.7737    10.3141     6.5909 H             1 RES     
    2281 H            7.5725    10.4478     5.0024 H             1 RES     
    2282 C            4.2736    10.5819     5.7821 C             1 RES     
    2283 H            4.4200    10.7764     6.8687 H             1 RES     
    2284 H            4.0355     9.5008     5.6630 H             1 RES     
    2285 H            3.3840    11.1651     5.4530 H             1 RES     
    2286 C            5.2001    10.6642     3.5602 C             1 RES     
    2287 H            4.3102    11.2401     3.2192 H             1 RES     
    2288 H            4.9579     9.5855     3.4280 H             1 RES     
    2289 C            6.3442    10.9896     2.5893 C             1 RES     
    2290 H            7.2505    10.3795     2.7771 H             1 RES     
    2291 H            6.5887    12.0705     2.5636 H             1 RES     
    2292 P            5.5069    11.9108     0.4251 P             1 RES     
    2293 O            5.2711    11.5712    -1.1206 O             1 RES     
    2294 O            6.1397    10.6388     1.1609 O             1 RES     
    2295 O            6.5423    13.1294     0.4782 O             1 RES     
    2296 O            4.0704    12.2318     1.0524 O             1 RES     
    2297 C            4.6846    12.7711    -1.7698 C             1 RES     
    2298 H            5.3722    13.6108    -1.6696 H             1 RES     
    2299 H            3.7374    13.0172    -1.2898 H             1 RES     
    2300 C            4.8899    11.0436    -3.5864 C             1 RES     
    2301 H            5.9510    10.9342    -3.3625 H             1 RES     
    2302 H            4.3161    10.3405    -2.9827 H             1 RES     
    2303 C            4.4429    12.4814    -3.2629 C             1 RES     
    2304 H            3.3818    12.5908    -3.4869 H             1 RES     
    2305 C            6.0224    11.2518    -5.4073 C             1 RES     
    2306 O            6.8632    11.6851    -4.6210 O             1 RES     
    2307 O            4.6592    10.7671    -5.0117 O             1 RES     
    2308 C            6.2092    11.1303    -6.8198 C             1 RES     
    2309 H            5.4589    11.7256    -7.3401 H             1 RES     
    2310 H            6.1030    10.0830    -7.1027 H             1 RES     
    2311 C            7.6152    11.6258    -7.2058 C             1 RES     
    2312 H            8.3656    11.0305    -6.6855 H             1 RES     
    2313 H            7.7214    12.6731    -6.9230 H             1 RES     
    2314 C            7.8111    11.4828    -8.7266 C             1 RES     
    2315 H            7.0608    12.0781    -9.2469 H             1 RES     
    2316 H            7.7049    10.4355    -9.0095 H             1 RES     
    2317 C            9.2172    11.9784    -9.1127 C             1 RES     
    2318 H            9.9675    11.3831    -8.5924 H             1 RES     
    2319 H            9.3234    13.0257    -8.8298 H             1 RES     
    2320 C            9.4131    11.8354   -10.6334 C             1 RES     
    2321 H            8.6628    12.4307   -11.1537 H             1 RES     
    2322 H            9.3069    10.7881   -10.9163 H             1 RES     
    2323 C           10.8191    12.3309   -11.0195 C             1 RES     
    2324 H           11.5695    11.7356   -10.4992 H             1 RES     
    2325 H           10.9254    13.3782   -10.7366 H             1 RES     
    2326 C           11.0150    12.1879   -12.5403 C             1 RES     
    2327 H           10.2647    12.7832   -13.0606 H             1 RES     
    2328 H           10.9088    11.1406   -12.8231 H             1 RES     
    2329 C           12.4211    12.6835   -12.9263 C             1 RES     
    2330 H           13.1714    12.0882   -12.4060 H             1 RES     
    2331 H           12.5273    13.7308   -12.6434 H             1 RES     
    2332 C           12.6170    12.5405   -14.4471 C             1 RES     
    2333 H           11.8667    13.1358   -14.9674 H             1 RES     
    2334 H           12.5108    11.4932   -14.7299 H             1 RES     
    2335 C           14.0231    13.0361   -14.8331 C             1 RES     
    2336 H           14.7734    12.4408   -14.3128 H             1 RES     
    2337 H           14.1293    14.0834   -14.5503 H             1 RES     
    2338 C           14.2190    12.8931   -16.3539 C             1 RES     
    2339 H           13.4686    13.4884   -16.8742 H             1 RES     
    2340 H           14.1127    11.8458   -16.6368 H             1 RES     
    2341 C           15.6250    13.3886   -16.7399 C             1 RES     
    2342 H           16.3753    12.7933   -16.2196 H             1 RES     
    2343 H           15.7312    14.4359   -16.4571 H             1 RES     
    2344 C           15.8209    13.2456   -18.2607 C             1 RES     
    2345 H           15.0706    13.8409   -18.7810 H             1 RES     
    2346 H           15.7147    12.1983   -18.5436 H             1 RES     
    2347 C           17.2270    13.7412   -18.6468 C             1 RES     
    2348 H           17.9773    13.1459   -18.1265 H             1 RES     
    2349 H           17.3332    14.7885   -18.3639 H             1 RES     
    2350 C           17.4229    13.5982   -20.1675 C             1 RES     
    2351 H           16.6725    14.1935   -20.6878 H             1 RES     
    2352 H           17.3167    12.5509   -20.4504 H             1 RES     
    2353 C           18.8289    14.0937   -20.5536 C             1 RES     
    2354 H           19.5792    13.4984   -20.0333 H             1 RES     
    2355 H           18.9351    15.1410   -20.2707 H             1 RES     
    2356 C           19.0159    13.9572   -22.0052 C             1 RES     
    2357 H           19.4030    12.9700   -21.8625 H             1 RES     
    2358 H           19.5876    14.4596   -22.7575 H             1 RES     
    2359 H           17.9927    13.8982   -22.3148 H             1 RES     
    2360 C            4.5972    12.8942    -5.3317 C             1 RES     
    2361 O            3.7677    11.9895    -5.4118 O             1 RES     
    2362 O            5.1877    13.3942    -4.0467 O             1 RES     
    2363 C            5.1248    13.6213    -6.4442 C             1 RES     
    2364 H            6.2071    13.4968    -6.4819 H             1 RES     
    2365 H            4.8841    14.6776    -6.3239 H             1 RES     
    2366 C            4.5026    13.0992    -7.7526 C             1 RES     
    2367 H            3.4204    13.2237    -7.7149 H             1 RES     
    2368 H            4.7434    12.0430    -7.8730 H             1 RES     
    2369 C            5.0692    13.8935    -8.9441 C             1 RES     
    2370 H            6.1514    13.7690    -8.9817 H             1 RES     
    2371 H            4.8284    14.9498    -8.8237 H             1 RES     
    2372 C            4.4469    13.3714   -10.2525 C             1 RES     
    2373 H            3.3647    13.4959   -10.2148 H             1 RES     
    2374 H            4.6877    12.3152   -10.3728 H             1 RES     
    2375 C            5.0135    14.1657   -11.4439 C             1 RES     
    2376 H            6.0957    14.0412   -11.4816 H             1 RES     
    2377 H            4.7727    15.2220   -11.3236 H             1 RES     
    2378 C            4.3913    13.6436   -12.7523 C             1 RES     
    2379 H            3.3091    13.7681   -12.7147 H             1 RES     
    2380 H            4.6321    12.5874   -12.8727 H             1 RES     
    2381 C            4.9579    14.4379   -13.9438 C             1 RES     
    2382 H            6.0401    14.3134   -13.9815 H             1 RES     
    2383 H            4.7171    15.4942   -13.8234 H             1 RES     
    2384 C            4.3356    13.9158   -15.2522 C             1 RES     
    2385 H            3.2534    14.0403   -15.2145 H             1 RES     
    2386 H            4.5764    12.8596   -15.3725 H             1 RES     
    2387 C            4.9022    14.7101   -16.4437 C             1 RES     
    2388 H            5.9844    14.5856   -16.4813 H             1 RES     
    2389 H            4.6614    15.7664   -16.3233 H             1 RES     
    2390 C            4.2799    14.1880   -17.7520 C             1 RES     
    2391 H            3.1977    14.3125   -17.7144 H             1 RES     
    2392 H            4.5207    13.1318   -17.8724 H             1 RES     
    2393 C            4.8465    14.9823   -18.9435 C             1 RES     
    2394 H            5.9287    14.8578   -18.9812 H             1 RES     
    2395 H            4.6057    16.0385   -18.8232 H             1 RES     
    2396 C            4.2243    14.4602   -20.2519 C             1 RES     
    2397 H            3.1421    14.5847   -20.2143 H             1 RES     
    2398 H            4.4651    13.4040   -20.3723 H             1 RES     
    2399 C            4.7909    15.2545   -21.4434 C             1 RES     
    2400 H            5.8731    15.1300   -21.4811 H             1 RES     
    2401 H            4.5501    16.3107   -21.3230 H             1 RES     
    2402 C            4.1686    14.7324   -22.7518 C             1 RES     
    2403 H            3.0864    14.8569   -22.7141 H             1 RES     
    2404 H            4.4094    13.6762   -22.8721 H             1 RES     
    2405 C            4.7352    15.5267   -23.9433 C             1 RES     
    2406 H            5.8174    15.4022   -23.9809 H             1 RES     
    2407 H            4.4944    16.5829   -23.8229 H             1 RES     
    2408 C            4.1129    15.0046   -25.2516 C             1 RES     
    2409 H            3.0307    15.1291   -25.2140 H             1 RES     
    2410 H            4.3537    13.9484   -25.3720 H             1 RES     
    2411 C            4.6538    15.7628   -26.3890 C             1 RES     
    2412 H            3.8586    16.4724   -26.2940 H             1 RES     
    2413 H            4.8370    15.5685   -27.4253 H             1 RES     
    2414 H            5.5407    16.1579   -25.9378 H             1 RES     
    2415 N           10.9545    27.3861     5.0000 N             1 RES     
    2416 C           11.0338    28.8504     5.2164 C             1 RES     
    2417 H           11.9216    29.2916     4.7159 H             1 RES     
    2418 H           11.1280    29.0897     6.2997 H             1 RES     
    2419 H           10.1235    29.3617     4.8309 H             1 RES     
    2420 C           12.1939    26.7441     5.4991 C             1 RES     
    2421 H           12.1708    25.6444     5.3296 H             1 RES     
    2422 H           12.3231    26.9196     6.5909 H             1 RES     
    2423 H           13.0978    27.1559     5.0024 H             1 RES     
    2424 C            9.8094    26.8604     5.7821 C             1 RES     
    2425 H            9.9294    27.0722     6.8687 H             1 RES     
    2426 H            9.7138    25.7575     5.6630 H             1 RES     
    2427 H            8.8516    27.3230     5.4530 H             1 RES     
    2428 C           10.7173    27.0624     3.5602 C             1 RES     
    2429 H            9.7602    27.5177     3.2192 H             1 RES     
    2430 H           10.6174    25.9613     3.4280 H             1 RES     
    2431 C           11.8095    27.5336     2.5893 C             1 RES     
    2432 H           12.7874    27.0464     2.7771 H             1 RES     
    2433 H           11.9115    28.6371     2.5636 H             1 RES     
    2434 P           10.8596    28.3382     0.4251 P             1 RES     
    2435 O           10.6700    27.9709    -1.1206 O             1 RES     
    2436 O           11.6523    27.1592     1.1609 O             1 RES     
    2437 O           11.7279    29.6810     0.4782 O             1 RES     
    2438 O            9.3936    28.4699     1.0524 O             1 RES     
    2439 C            9.9325    29.0844    -1.7698 C             1 RES     
    2440 H           10.5052    30.0064    -1.6696 H             1 RES     
    2441 H            8.9614    29.2053    -1.2898 H             1 RES     
    2442 C           10.3605    27.3982    -3.5864 C             1 RES     
    2443 H           11.4268    27.4276    -3.3625 H             1 RES     
    2444 H            9.8830    26.6265    -2.9827 H             1 RES     
    2445 C            9.7305    28.7658    -3.2629 C             1 RES     
    2446 H            8.6642    28.7364    -3.4869 H             1 RES     
    2447 C           11.4564    27.7518    -5.4073 C             1 RES     
    2448 O           12.2337    28.2907    -4.6210 O             1 RES     
    2449 O           10.1677    27.0941    -5.0117 O             1 RES     
    2450 C           11.6574    27.6555    -6.8198 C             1 RES     
    2451 H           10.8361    28.1483    -7.3401 H             1 RES     
    2452 H           11.6881    26.6033    -7.1027 H             1 RES     
    2453 C           12.9871    28.3296    -7.2058 C             1 RES     
    2454 H           13.8084    27.8368    -6.6855 H             1 RES     
    2455 H           12.9564    29.3818    -6.9230 H             1 RES     
    2456 C           13.1999    28.2132    -8.7266 C             1 RES     
    2457 H           12.3786    28.7060    -9.2469 H             1 RES     
    2458 H           13.2307    27.1610    -9.0095 H             1 RES     
    2459 C           14.5297    28.8873    -9.1127 C             1 RES     
    2460 H           15.3510    28.3945    -8.5924 H             1 RES     
    2461 H           14.4989    29.9395    -8.8298 H             1 RES     
    2462 C           14.7425    28.7709   -10.6334 C             1 RES     
    2463 H           13.9212    29.2637   -11.1537 H             1 RES     
    2464 H           14.7733    27.7187   -10.9163 H             1 RES     
    2465 C           16.0723    29.4450   -11.0195 C             1 RES     
    2466 H           16.8936    28.9522   -10.4992 H             1 RES     
    2467 H           16.0415    30.4972   -10.7366 H             1 RES     
    2468 C           16.2851    29.3286   -12.5403 C             1 RES     
    2469 H           15.4638    29.8214   -13.0606 H             1 RES     
    2470 H           16.3158    28.2764   -12.8231 H             1 RES     
    2471 C           17.6148    30.0026   -12.9263 C             1 RES     
    2472 H           18.4362    29.5099   -12.4060 H             1 RES     
    2473 H           17.5841    31.0549   -12.6434 H             1 RES     
    2474 C           17.8277    29.8863   -14.4471 C             1 RES     
    2475 H           17.0063    30.3791   -14.9674 H             1 RES     
    2476 H           17.8584    28.8341   -14.7299 H             1 RES     
    2477 C           19.1574    30.5603   -14.8331 C             1 RES     
    2478 H           19.9787    30.0676   -14.3128 H             1 RES     
    2479 H           19.1267    31.6125   -14.5503 H             1 RES     
    2480 C           19.3702    30.4440   -16.3539 C             1 RES     
    2481 H           18.5489    30.9368   -16.8742 H             1 RES     
    2482 H           19.4010    29.3918   -16.6368 H             1 RES     
    2483 C           20.7000    31.1180   -16.7399 C             1 RES     
    2484 H           21.5213    30.6252   -16.2196 H             1 RES     
    2485 H           20.6692    32.1702   -16.4571 H             1 RES     
    2486 C           20.9128    31.0017   -18.2607 C             1 RES     
    2487 H           20.0915    31.4945   -18.7810 H             1 RES     
    2488 H           20.9436    29.9495   -18.5436 H             1 RES     
    2489 C           22.2426    31.6757   -18.6468 C             1 RES     
    2490 H           23.0639    31.1829   -18.1265 H             1 RES     
    2491 H           22.2118    32.7279   -18.3639 H             1 RES     
    2492 C           22.4554    31.5594   -20.1675 C             1 RES     
    2493 H           21.6341    32.0522   -20.6878 H             1 RES     
    2494 H           22.4861    30.5072   -20.4504 H             1 RES     
    2495 C           23.7851    32.2334   -20.5536 C             1 RES     
    2496 H           24.6064    31.7406   -20.0333 H             1 RES     
    2497 H           23.7544    33.2856   -20.2707 H             1 RES     
    2498 C           23.9883    32.1224   -22.0052 C             1 RES     
    2499 H           24.5004    31.1938   -21.8625 H             1 RES     
    2500 H           24.4899    32.6947   -22.7575 H             1 RES     
    2501 H           22.9814    31.9309   -22.3148 H             1 RES     
    2502 C            9.8299    29.1951    -5.3317 C             1 RES     
    2503 O            9.1250    28.1903    -5.4118 O             1 RES     
    2504 O           10.3504    29.7675    -4.0467 O             1 RES     
    2505 C           10.2586    29.9846    -6.4442 C             1 RES     
    2506 H           11.3478    30.0018    -6.4819 H             1 RES     
    2507 H            9.8826    31.0006    -6.3239 H             1 RES     
    2508 C            9.7095    29.3861    -7.7526 C             1 RES     
    2509 H            8.6202    29.3689    -7.7149 H             1 RES     
    2510 H           10.0854    28.3701    -7.8730 H             1 RES     
    2511 C           10.1680    30.2473    -8.9441 C             1 RES     
    2512 H           11.2572    30.2644    -8.9817 H             1 RES     
    2513 H            9.7921    31.2633    -8.8237 H             1 RES     
    2514 C            9.6189    29.6488   -10.2525 C             1 RES     
    2515 H            8.5297    29.6316   -10.2148 H             1 RES     
    2516 H            9.9949    28.6328   -10.3728 H             1 RES     
    2517 C           10.0775    30.5099   -11.4439 C             1 RES     
    2518 H           11.1667    30.5271   -11.4816 H             1 RES     
    2519 H            9.7015    31.5259   -11.3236 H             1 RES     
    2520 C            9.5283    29.9114   -12.7523 C             1 RES     
    2521 H            8.4391    29.8942   -12.7147 H             1 RES     
    2522 H            9.9043    28.8954   -12.8727 H             1 RES     
    2523 C            9.9869    30.7726   -13.9438 C             1 RES     
    2524 H           11.0761    30.7898   -13.9815 H             1 RES     
    2525 H            9.6110    31.7886   -13.8234 H             1 RES     
    2526 C            9.4378    30.1741   -15.2522 C             1 RES     
    2527 H            8.3486    30.1569   -15.2145 H             1 RES     
    2528 H            9.8137    29.1581   -15.3725 H             1 RES     
    2529 C            9.8964    31.0353   -16.4437 C             1 RES     
    2530 H           10.9856    31.0524   -16.4813 H             1 RES     
    2531 H            9.5204    32.0513   -16.3233 H             1 RES     
    2532 C            9.3472    30.4367   -17.7520 C             1 RES     
    2533 H            8.2580    30.4196   -17.7144 H             1 RES     
    2534 H            9.7232    29.4207   -17.8724 H             1 RES     
    2535 C            9.8058    31.2979   -18.9435 C             1 RES     
    2536 H           10.8950    31.3151   -18.9812 H             1 RES     
    2537 H            9.4298    32.3139   -18.8232 H             1 RES     
    2538 C            9.2567    30.6994   -20.2519 C             1 RES     
    2539 H            8.1675    30.6822   -20.2143 H             1 RES     
    2540 H            9.6326    29.6834   -20.3723 H             1 RES     
    2541 C            9.7152    31.5606   -21.4434 C             1 RES     
    2542 H           10.8045    31.5777   -21.4811 H             1 RES     
    2543 H            9.3393    32.5766   -21.3230 H             1 RES     
    2544 C            9.1661    30.9620   -22.7518 C             1 RES     
    2545 H            8.0769    30.9449   -22.7141 H             1 RES     
    2546 H            9.5421    29.9460   -22.8721 H             1 RES     
    2547 C            9.6247    31.8232   -23.9433 C             1 RES     
    2548 H           10.7139    31.8404   -23.9809 H             1 RES     
    2549 H            9.2487    32.8392   -23.8229 H             1 RES     
    2550 C            9.0756    31.2247   -25.2516 C             1 RES     
    2551 H            7.9863    31.2075   -25.2140 H             1 RES     
    2552 H            9.4515    30.2087   -25.3720 H             1 RES     
    2553 C            9.5133    32.0467   -26.3890 C             1 RES     
    2554 H            8.6327    32.6471   -26.2940 H             1 RES     
    2555 H            9.7202    31.8779   -27.4253 H             1 RES     
    2556 H           10.3413    32.5537   -25.9378 H             1 RES     
    2557 N           27.3861    21.9089     5.0000 N             1 RES     
    2558 C           27.4789    23.3724     5.2164 C             1 RES     
    2559 H           28.3707    23.8054     4.7159 H             1 RES     
    2560 H           27.5753    23.6108     6.2997 H             1 RES     
    2561 H           26.5734    23.8920     4.8309 H             1 RES     
    2562 C           28.6196    21.2555     5.4991 C             1 RES     
    2563 H           28.5864    20.1561     5.3296 H             1 RES     
    2564 H           28.7505    21.4299     6.5909 H             1 RES     
    2565 H           29.5272    21.6591     5.0024 H             1 RES     
    2566 C           26.2363    21.3937     5.7821 C             1 RES     
    2567 H           26.3582    21.6044     6.8687 H             1 RES     
    2568 H           26.1306    20.2917     5.6630 H             1 RES     
    2569 H           25.2828    21.8651     5.4530 H             1 RES     
    2570 C           27.1461    21.5873     3.5602 C             1 RES     
    2571 H           26.1931    22.0515     3.2192 H             1 RES     
    2572 H           27.0360    20.4872     3.4280 H             1 RES     
    2573 C           28.2425    22.0485     2.5893 C             1 RES     
    2574 H           29.2159    21.5524     2.7771 H             1 RES     
    2575 H           28.3546    23.1510     2.5636 H             1 RES     
    2576 P           27.3000    22.8618     0.4251 P             1 RES     
    2577 O           27.1070    22.4962    -1.1206 O             1 RES     
    2578 O           28.0819    21.6756     1.1609 O             1 RES     
    2579 O           28.1806    24.1966     0.4782 O             1 RES     
    2580 O           25.8353    23.0069     1.0524 O             1 RES     
    2581 C           26.3798    23.6165    -1.7698 C             1 RES     
    2582 H           26.9610    24.5331    -1.6696 H             1 RES     
    2583 H           25.4098    23.7463    -1.2898 H             1 RES     
    2584 C           26.7923    21.9265    -3.5864 C             1 RES     
    2585 H           27.8588    21.9460    -3.3625 H             1 RES     
    2586 H           26.3077    21.1592    -2.9827 H             1 RES     
    2587 C           26.1749    23.2997    -3.2629 C             1 RES     
    2588 H           25.1083    23.2801    -3.4869 H             1 RES     
    2589 C           27.8914    22.2700    -5.4073 C             1 RES     
    2590 O           28.6736    22.8017    -4.6210 O             1 RES     
    2591 O           26.5967    21.6241    -5.0117 O             1 RES     
    2592 C           28.0915    22.1719    -6.8198 C             1 RES     
    2593 H           27.2747    22.6721    -7.3401 H             1 RES     
    2594 H           28.1126    21.1194    -7.1027 H             1 RES     
    2595 C           29.4274    22.8337    -7.2058 C             1 RES     
    2596 H           30.2441    22.3334    -6.6855 H             1 RES     
    2597 H           29.4063    23.8861    -6.9230 H             1 RES     
    2598 C           29.6391    22.7154    -8.7266 C             1 RES     
    2599 H           28.8223    23.2157    -9.2469 H             1 RES     
    2600 H           29.6602    21.6629    -9.0095 H             1 RES     
    2601 C           30.9750    23.3772    -9.1127 C             1 RES     
    2602 H           31.7917    22.8769    -8.5924 H             1 RES     
    2603 H           30.9539    24.4297    -8.8298 H             1 RES     
    2604 C           31.1867    23.2589   -10.6334 C             1 RES     
    2605 H           30.3700    23.7592   -11.1537 H             1 RES     
    2606 H           31.2078    22.2065   -10.9163 H             1 RES     
    2607 C           32.5226    23.9207   -11.0195 C             1 RES     
    2608 H           33.3394    23.4204   -10.4992 H             1 RES     
    2609 H           32.5015    24.9732   -10.7366 H             1 RES     
    2610 C           32.7344    23.8024   -12.5403 C             1 RES     
    2611 H           31.9176    24.3027   -13.0606 H             1 RES     
    2612 H           32.7555    22.7500   -12.8231 H             1 RES     
    2613 C           34.0702    24.4643   -12.9263 C             1 RES     
    2614 H           34.8870    23.9640   -12.4060 H             1 RES     
    2615 H           34.0491    25.5167   -12.6434 H             1 RES     
    2616 C           34.2820    24.3460   -14.4471 C             1 RES     
    2617 H           33.4652    24.8463   -14.9674 H             1 RES     
    2618 H           34.3031    23.2935   -14.7299 H             1 RES     
    2619 C           35.6178    25.0078   -14.8331 C             1 RES     
    2620 H           36.4346    24.5075   -14.3128 H             1 RES     
    2621 H           35.5967    26.0602   -14.5503 H             1 RES     
    2622 C           35.8296    24.8895   -16.3539 C             1 RES     
    2623 H           35.0128    25.3898   -16.8742 H             1 RES     
    2624 H           35.8507    23.8370   -16.6368 H             1 RES     
    2625 C           37.1655    25.5513   -16.7399 C             1 RES     
    2626 H           37.9822    25.0510   -16.2196 H             1 RES     
    2627 H           37.1444    26.6038   -16.4571 H             1 RES     
    2628 C           37.3772    25.4330   -18.2607 C             1 RES     
    2629 H           36.5604    25.9333   -18.7810 H             1 RES     
    2630 H           37.3983    24.3806   -18.5436 H             1 RES     
    2631 C           38.7131    26.0948   -18.6468 C             1 RES     
    2632 H           39.5298    25.5946   -18.1265 H             1 RES     
    2633 H           38.6920    27.1473   -18.3639 H             1 RES     
    2634 C           38.9248    25.9765   -20.1675 C             1 RES     
    2635 H           38.1081    26.4768   -20.6878 H             1 RES     
    2636 H           38.9459    24.9241   -20.4504 H             1 RES     
    2637 C           40.2607    26.6384   -20.5536 C             1 RES     
    2638 H           41.0775    26.1381   -20.0333 H             1 RES     
    2639 H           40.2396    27.6908   -20.2707 H             1 RES     
    2640 C           40.4628    26.5255   -22.0052 C             1 RES     
    2641 H           40.9664    25.5922   -21.8625 H             1 RES     
    2642 H           40.9697    27.0932   -22.7575 H             1 RES     
    2643 H           39.4542    26.3432   -22.3148 H             1 RES     
    2644 C           26.2782    23.7281    -5.3317 C             1 RES     
    2645 O           25.5641    22.7299    -5.4118 O             1 RES     
    2646 O           26.8040    24.2958    -4.0467 O             1 RES     
    2647 C           26.7141    24.5137    -6.4442 C             1 RES     
    2648 H           27.8034    24.5208    -6.4819 H             1 RES     
    2649 H           26.3475    25.5331    -6.3239 H             1 RES     
    2650 C           26.1595    23.9202    -7.7526 C             1 RES     
    2651 H           25.0702    23.9130    -7.7149 H             1 RES     
    2652 H           26.5262    22.9008    -7.8730 H             1 RES     
    2653 C           26.6260    24.7771    -8.9441 C             1 RES     
    2654 H           27.7153    24.7843    -8.9817 H             1 RES     
    2655 H           26.2593    25.7965    -8.8237 H             1 RES     
    2656 C           26.0714    24.1837   -10.2525 C             1 RES     
    2657 H           24.9820    24.1765   -10.2148 H             1 RES     
    2658 H           26.4380    23.1643   -10.3728 H             1 RES     
    2659 C           26.5378    25.0406   -11.4439 C             1 RES     
    2660 H           27.6271    25.0478   -11.4816 H             1 RES     
    2661 H           26.1712    26.0600   -11.3236 H             1 RES     
    2662 C           25.9832    24.4472   -12.7523 C             1 RES     
    2663 H           24.8939    24.4400   -12.7147 H             1 RES     
    2664 H           26.3499    23.4277   -12.8727 H             1 RES     
    2665 C           26.4497    25.3041   -13.9438 C             1 RES     
    2666 H           27.5390    25.3113   -13.9815 H             1 RES     
    2667 H           26.0830    26.3235   -13.8234 H             1 RES     
    2668 C           25.8951    24.7106   -15.2522 C             1 RES     
    2669 H           24.8058    24.7034   -15.2145 H             1 RES     
    2670 H           26.2617    23.6912   -15.3725 H             1 RES     
    2671 C           26.3615    25.5676   -16.4437 C             1 RES     
    2672 H           27.4509    25.5748   -16.4813 H             1 RES     
    2673 H           25.9949    26.5870   -16.3233 H             1 RES     
    2674 C           25.8069    24.9741   -17.7520 C             1 RES     
    2675 H           24.7176    24.9669   -17.7144 H             1 RES     
    2676 H           26.1736    23.9547   -17.8724 H             1 RES     
    2677 C           26.2734    25.8311   -18.9435 C             1 RES     
    2678 H           27.3627    25.8382   -18.9812 H             1 RES     
    2679 H           25.9068    26.8505   -18.8232 H             1 RES     
    2680 C           25.7188    25.2376   -20.2519 C             1 RES     
    2681 H           24.6295    25.2304   -20.2143 H             1 RES     
    2682 H           26.0854    24.2182   -20.3723 H             1 RES     
    2683 C           26.1852    26.0945   -21.4434 C             1 RES     
    2684 H           27.2746    26.1017   -21.4811 H             1 RES     
    2685 H           25.8186    27.1139   -21.3230 H             1 RES     
    2686 C           25.6306    25.5011   -22.7518 C             1 RES     
    2687 H           24.5413    25.4939   -22.7141 H             1 RES     
    2688 H           25.9973    24.4817   -22.8721 H             1 RES     
    2689 C           26.0971    26.3580   -23.9433 C             1 RES     
    2690 H           27.1864    26.3652   -23.9809 H             1 RES     
    2691 H           25.7305    27.3774   -23.8229 H             1 RES     
    2692 C           25.5425    25.7645   -25.2516 C             1 RES     
    2693 H           24.4532    25.7574   -25.2140 H             1 RES     
    2694 H           25.9091    24.7451   -25.3720 H             1 RES     
    2695 C           25.9878    26.5825   -26.3890 C             1 RES     
    2696 H           25.1127    27.1909   -26.2940 H             1 RES     
    2697 H           26.1931    26.4118   -27.4253 H             1 RES     
    2698 H           26.8204    27.0819   -25.9378 H             1 RES     
    2699 N            5.4772    38.3406     5.0000 N             1 RES     
    2700 C            5.9574    39.7262     5.2164 C             1 RES     
    2701 H            6.9325    39.9053     4.7159 H             1 RES     
    2702 H            6.1140    39.9302     6.2997 H             1 RES     
    2703 H            5.2235    40.4687     4.8309 H             1 RES     
    2704 C            6.4914    37.3815     5.4991 C             1 RES     
    2705 H            6.1659    36.3309     5.3296 H             1 RES     
    2706 H            6.6641    37.5146     6.5909 H             1 RES     
    2707 H            7.4739    37.5281     5.0024 H             1 RES     
    2708 C            4.2316    38.1511     5.7821 C             1 RES     
    2709 H            4.4053    38.3217     6.8687 H             1 RES     
    2710 H            3.8354    37.1174     5.6630 H             1 RES     
    2711 H            3.4385    38.8601     5.4530 H             1 RES     
    2712 C            5.1600    38.0948     3.5602 C             1 RES     
    2713 H            4.3656    38.7965     3.2192 H             1 RES     
    2714 H            4.7602    37.0640     3.4280 H             1 RES     
    2715 C            6.3398    38.2464     2.5893 C             1 RES     
    2716 H            7.1453    37.5084     2.7771 H             1 RES     
    2717 H            6.7422    39.2790     2.5636 H             1 RES     
    2718 P            5.6487    39.2819     0.4251 P             1 RES     
    2719 O            5.3651    38.9811    -1.1206 O             1 RES     
    2720 O            6.0854    37.9299     1.1609 O             1 RES     
    2721 O            6.8538    40.3331     0.4782 O             1 RES     
    2722 O            4.2759    39.8128     1.0524 O             1 RES     
    2723 C            4.9634    40.2549    -1.7698 C             1 RES     
    2724 H            5.7683    40.9831    -1.6696 H             1 RES     
    2725 H            4.0634    40.6390    -1.2898 H             1 RES     
    2726 C            4.9096    38.5161    -3.5864 C             1 RES     
    2727 H            5.9427    38.2501    -3.3625 H             1 RES     
    2728 H            4.2378    37.9061    -2.9827 H             1 RES     
    2729 C            4.6814    40.0043    -3.2629 C             1 RES     
    2730 H            3.6483    40.2703    -3.4869 H             1 RES     
    2731 C            6.0606    38.5536    -5.4073 C             1 RES     
    2732 O            6.9564    38.8571    -4.6210 O             1 RES     
    2733 O            4.6404    38.2769    -5.0117 O             1 RES     
    2734 C            6.2272    38.4056    -6.8198 C             1 RES     
    2735 H            5.5737    39.1059    -7.3401 H             1 RES     
    2736 H            5.9665    37.3858    -7.1027 H             1 RES     
    2737 C            7.6913    38.6867    -7.2058 C             1 RES     
    2738 H            8.3448    37.9864    -6.6855 H             1 RES     
    2739 H            7.9520    39.7065    -6.9230 H             1 RES     
    2740 C            7.8638    38.5161    -8.7266 C             1 RES     
    2741 H            7.2103    39.2164    -9.2469 H             1 RES     
    2742 H            7.6030    37.4963    -9.0095 H             1 RES     
    2743 C            9.3279    38.7972    -9.1127 C             1 RES     
    2744 H            9.9814    38.0969    -8.5924 H             1 RES     
    2745 H            9.5886    39.8170    -8.8298 H             1 RES     
    2746 C            9.5003    38.6266   -10.6334 C             1 RES     
    2747 H            8.8468    39.3269   -11.1537 H             1 RES     
    2748 H            9.2396    37.6068   -10.9163 H             1 RES     
    2749 C           10.9644    38.9077   -11.0195 C             1 RES     
    2750 H           11.6179    38.2075   -10.4992 H             1 RES     
    2751 H           11.2251    39.9275   -10.7366 H             1 RES     
    2752 C           11.1369    38.7371   -12.5403 C             1 RES     
    2753 H           10.4834    39.4374   -13.0606 H             1 RES     
    2754 H           10.8762    37.7173   -12.8231 H             1 RES     
    2755 C           12.6010    39.0182   -12.9263 C             1 RES     
    2756 H           13.2545    38.3180   -12.4060 H             1 RES     
    2757 H           12.8617    40.0381   -12.6434 H             1 RES     
    2758 C           12.7734    38.8476   -14.4471 C             1 RES     
    2759 H           12.1199    39.5479   -14.9674 H             1 RES     
    2760 H           12.5127    37.8278   -14.7299 H             1 RES     
    2761 C           14.2375    39.1287   -14.8331 C             1 RES     
    2762 H           14.8910    38.4285   -14.3128 H             1 RES     
    2763 H           14.4982    40.1486   -14.5503 H             1 RES     
    2764 C           14.4100    38.9582   -16.3539 C             1 RES     
    2765 H           13.7565    39.6584   -16.8742 H             1 RES     
    2766 H           14.1493    37.9383   -16.6368 H             1 RES     
    2767 C           15.8741    39.2392   -16.7399 C             1 RES     
    2768 H           16.5276    38.5390   -16.2196 H             1 RES     
    2769 H           16.1348    40.2591   -16.4571 H             1 RES     
    2770 C           16.0466    39.0687   -18.2607 C             1 RES     
    2771 H           15.3931    39.7689   -18.7810 H             1 RES     
    2772 H           15.7859    38.0488   -18.5436 H             1 RES     
    2773 C           17.5107    39.3497   -18.6468 C             1 RES     
    2774 H           18.1642    38.6495   -18.1265 H             1 RES     
    2775 H           17.7714    40.3696   -18.3639 H             1 RES     
    2776 C           17.6831    39.1792   -20.1675 C             1 RES     
    2777 H           17.0296    39.8794   -20.6878 H             1 RES     
    2778 H           17.4224    38.1593   -20.4504 H             1 RES     
    2779 C           19.1472    39.4602   -20.5536 C             1 RES     
    2780 H           19.8007    38.7600   -20.0333 H             1 RES     
    2781 H           19.4079    40.4801   -20.2707 H             1 RES     
    2782 C           19.3119    39.2974   -22.0052 C             1 RES     
    2783 H           19.5479    38.2636   -21.8625 H             1 RES     
    2784 H           19.9519    39.7092   -22.7575 H             1 RES     
    2785 H           18.2912    39.3911   -22.3148 H             1 RES     
    2786 C            4.8953    40.3896    -5.3317 C             1 RES     
    2787 O            3.9406    39.6183    -5.4118 O             1 RES     
    2788 O            5.5536    40.7962    -4.0467 O             1 RES     
    2789 C            5.5252    41.0302    -6.4442 C             1 RES     
    2790 H            6.5769    40.7462    -6.4819 H             1 RES     
    2791 H            5.4441    42.1105    -6.3239 H             1 RES     
    2792 C            4.8323    40.6064    -7.7526 C             1 RES     
    2793 H            3.7806    40.8904    -7.7149 H             1 RES     
    2794 H            4.9134    39.5261    -7.8730 H             1 RES     
    2795 C            5.5106    41.3077    -8.9441 C             1 RES     
    2796 H            6.5623    41.0237    -8.9817 H             1 RES     
    2797 H            5.4295    42.3879    -8.8237 H             1 RES     
    2798 C            4.8177    40.8838   -10.2525 C             1 RES     
    2799 H            3.7660    41.1678   -10.2148 H             1 RES     
    2800 H            4.8988    39.8035   -10.3728 H             1 RES     
    2801 C            5.4960    41.5851   -11.4439 C             1 RES     
    2802 H            6.5477    41.3011   -11.4816 H             1 RES     
    2803 H            5.4149    42.6654   -11.3236 H             1 RES     
    2804 C            4.8031    41.1613   -12.7523 C             1 RES     
    2805 H            3.7514    41.4453   -12.7147 H             1 RES     
    2806 H            4.8842    40.0810   -12.8727 H             1 RES     
    2807 C            5.4815    41.8625   -13.9438 C             1 RES     
    2808 H            6.5331    41.5786   -13.9815 H             1 RES     
    2809 H            5.4004    42.9428   -13.8234 H             1 RES     
    2810 C            4.7885    41.4387   -15.2522 C             1 RES     
    2811 H            3.7368    41.7227   -15.2145 H             1 RES     
    2812 H            4.8696    40.3584   -15.3725 H             1 RES     
    2813 C            5.4669    42.1400   -16.4437 C             1 RES     
    2814 H            6.5186    41.8560   -16.4813 H             1 RES     
    2815 H            5.3858    43.2203   -16.3233 H             1 RES     
    2816 C            4.7739    41.7162   -17.7520 C             1 RES     
    2817 H            3.7222    42.0002   -17.7144 H             1 RES     
    2818 H            4.8550    40.6359   -17.8724 H             1 RES     
    2819 C            5.4523    42.4174   -18.9435 C             1 RES     
    2820 H            6.5040    42.1335   -18.9812 H             1 RES     
    2821 H            5.3712    43.4977   -18.8232 H             1 RES     
    2822 C            4.7593    41.9936   -20.2519 C             1 RES     
    2823 H            3.7077    42.2776   -20.2143 H             1 RES     
    2824 H            4.8404    40.9133   -20.3723 H             1 RES     
    2825 C            5.4377    42.6949   -21.4434 C             1 RES     
    2826 H            6.4894    42.4109   -21.4811 H             1 RES     
    2827 H            5.3566    43.7752   -21.3230 H             1 RES     
    2828 C            4.7448    42.2711   -22.7518 C             1 RES     
    2829 H            3.6931    42.5551   -22.7141 H             1 RES     
    2830 H            4.8259    41.1908   -22.8721 H             1 RES     
    2831 C            5.4231    42.9723   -23.9433 C             1 RES     
    2832 H            6.4748    42.6884   -23.9809 H             1 RES     
    2833 H            5.3420    44.0526   -23.8229 H             1 RES     
    2834 C            4.7302    42.5485   -25.2516 C             1 RES     
    2835 H            3.6785    42.8325   -25.2140 H             1 RES     
    2836 H            4.8113    41.4682   -25.3720 H             1 RES     
    2837 C            5.3777    43.2179   -26.3890 C             1 RES     
    2838 H            4.6969    44.0379   -26.2940 H             1 RES     
    2839 H            5.5300    42.9986   -27.4253 H             1 RES     
    2840 H            6.3135    43.4768   -25.9378 H             1 RES     
    2841 N           32.8634    10.9545     5.0000 N             1 RES     
    2842 C           33.3437    12.3400     5.2164 C             1 RES     
    2843 H           34.3188    12.5190     4.7159 H             1 RES     
    2844 H           33.5003    12.5440     6.2997 H             1 RES     
    2845 H           32.6098    13.0826     4.8309 H             1 RES     
    2846 C           33.8775     9.9953     5.4991 C             1 RES     
    2847 H           33.5519     8.9447     5.3296 H             1 RES     
    2848 H           34.0502    10.1284     6.5909 H             1 RES     
    2849 H           34.8599    10.1418     5.0024 H             1 RES     
    2850 C           31.6177    10.7651     5.7821 C             1 RES     
    2851 H           31.7914    10.9356     6.8687 H             1 RES     
    2852 H           31.2215     9.7314     5.6630 H             1 RES     
    2853 H           30.8247    11.4741     5.4530 H             1 RES     
    2854 C           32.5461    10.7087     3.5602 C             1 RES     
    2855 H           31.7518    11.4105     3.2192 H             1 RES     
    2856 H           32.1462     9.6780     3.4280 H             1 RES     
    2857 C           33.7259    10.8602     2.5893 C             1 RES     
    2858 H           34.5314    10.1221     2.7771 H             1 RES     
    2859 H           34.1284    11.8927     2.5636 H             1 RES     
    2860 P           33.0349    11.8958     0.4251 P             1 RES     
    2861 O           32.7513    11.5950    -1.1206 O             1 RES     
    2862 O           33.4715    10.5438     1.1609 O             1 RES     
    2863 O           34.2401    12.9468     0.4782 O             1 RES     
    2864 O           31.6622    12.4268     1.0524 O             1 RES     
    2865 C           32.3497    12.8688    -1.7698 C             1 RES     
    2866 H           33.1546    13.5969    -1.6696 H             1 RES     
    2867 H           31.4497    13.2530    -1.2898 H             1 RES     
    2868 C           32.2958    11.1300    -3.5864 C             1 RES     
    2869 H           33.3288    10.8640    -3.3625 H             1 RES     
    2870 H           31.6239    10.5200    -2.9827 H             1 RES     
    2871 C           32.0676    12.6182    -3.2629 C             1 RES     
    2872 H           31.0346    12.8843    -3.4869 H             1 RES     
    2873 C           33.4467    11.1674    -5.4073 C             1 RES     
    2874 O           34.3426    11.4709    -4.6210 O             1 RES     
    2875 O           32.0266    10.8908    -5.0117 O             1 RES     
    2876 C           33.6133    11.0194    -6.8198 C             1 RES     
    2877 H           32.9599    11.7197    -7.3401 H             1 RES     
    2878 H           33.3525     9.9996    -7.1027 H             1 RES     
    2879 C           35.0774    11.3004    -7.2058 C             1 RES     
    2880 H           35.7309    10.6001    -6.6855 H             1 RES     
    2881 H           35.3382    12.3202    -6.9230 H             1 RES     
    2882 C           35.2499    11.1298    -8.7266 C             1 RES     
    2883 H           34.5964    11.8301    -9.2469 H             1 RES     
    2884 H           34.9891    10.1100    -9.0095 H             1 RES     
    2885 C           36.7140    11.4108    -9.1127 C             1 RES     
    2886 H           37.3675    10.7105    -8.5924 H             1 RES     
    2887 H           36.9748    12.4306    -8.8298 H             1 RES     
    2888 C           36.8865    11.2402   -10.6334 C             1 RES     
    2889 H           36.2330    11.9405   -11.1537 H             1 RES     
    2890 H           36.6257    10.2204   -10.9163 H             1 RES     
    2891 C           38.3506    11.5211   -11.0195 C             1 RES     
    2892 H           39.0040    10.8209   -10.4992 H             1 RES     
    2893 H           38.6114    12.5410   -10.7366 H             1 RES     
    2894 C           38.5230    11.3506   -12.5403 C             1 RES     
    2895 H           37.8696    12.0509   -13.0606 H             1 RES     
    2896 H           38.2623    10.3307   -12.8231 H             1 RES     
    2897 C           39.9872    11.6315   -12.9263 C             1 RES     
    2898 H           40.6406    10.9312   -12.4060 H             1 RES     
    2899 H           40.2479    12.6514   -12.6434 H             1 RES     
    2900 C           40.1596    11.4610   -14.4471 C             1 RES     
    2901 H           39.5062    12.1612   -14.9674 H             1 RES     
    2902 H           39.8988    10.4411   -14.7299 H             1 RES     
    2903 C           41.6237    11.7419   -14.8331 C             1 RES     
    2904 H           42.2772    11.0416   -14.3128 H             1 RES     
    2905 H           41.8845    12.7617   -14.5503 H             1 RES     
    2906 C           41.7962    11.5713   -16.3539 C             1 RES     
    2907 H           41.1427    12.2716   -16.8742 H             1 RES     
    2908 H           41.5354    10.5515   -16.6368 H             1 RES     
    2909 C           43.2603    11.8523   -16.7399 C             1 RES     
    2910 H           43.9137    11.1520   -16.2196 H             1 RES     
    2911 H           43.5211    12.8721   -16.4571 H             1 RES     
    2912 C           43.4328    11.6817   -18.2607 C             1 RES     
    2913 H           42.7793    12.3820   -18.7810 H             1 RES     
    2914 H           43.1720    10.6619   -18.5436 H             1 RES     
    2915 C           44.8969    11.9627   -18.6468 C             1 RES     
    2916 H           45.5503    11.2624   -18.1265 H             1 RES     
    2917 H           45.1577    12.9825   -18.3639 H             1 RES     
    2918 C           45.0693    11.7921   -20.1675 C             1 RES     
    2919 H           44.4159    12.4924   -20.6878 H             1 RES     
    2920 H           44.8085    10.7723   -20.4504 H             1 RES     
    2921 C           46.5334    12.0730   -20.5536 C             1 RES     
    2922 H           47.1869    11.3728   -20.0333 H             1 RES     
    2923 H           46.7942    13.0929   -20.2707 H             1 RES     
    2924 C           46.6981    11.9102   -22.0052 C             1 RES     
    2925 H           46.9341    10.8764   -21.8625 H             1 RES     
    2926 H           47.3381    12.3220   -22.7575 H             1 RES     
    2927 H           45.6774    12.0040   -22.3148 H             1 RES     
    2928 C           32.2816    13.0035    -5.3317 C             1 RES     
    2929 O           31.3268    12.2323    -5.4118 O             1 RES     
    2930 O           32.9399    13.4101    -4.0467 O             1 RES     
    2931 C           32.9115    13.6441    -6.4442 C             1 RES     
    2932 H           33.9632    13.3600    -6.4819 H             1 RES     
    2933 H           32.8305    14.7244    -6.3239 H             1 RES     
    2934 C           32.2186    13.2203    -7.7526 C             1 RES     
    2935 H           31.1669    13.5044    -7.7149 H             1 RES     
    2936 H           32.2996    12.1400    -7.8730 H             1 RES     
    2937 C           32.8970    13.9215    -8.9441 C             1 RES     
    2938 H           33.9486    13.6375    -8.9817 H             1 RES     
    2939 H           32.8160    15.0018    -8.8237 H             1 RES     
    2940 C           32.2040    13.4978   -10.2525 C             1 RES     
    2941 H           31.1523    13.7818   -10.2148 H             1 RES     
    2942 H           32.2850    12.4175   -10.3728 H             1 RES     
    2943 C           32.8824    14.1990   -11.4439 C             1 RES     
    2944 H           33.9341    13.9149   -11.4816 H             1 RES     
    2945 H           32.8014    15.2793   -11.3236 H             1 RES     
    2946 C           32.1894    13.7752   -12.7523 C             1 RES     
    2947 H           31.1378    14.0593   -12.7147 H             1 RES     
    2948 H           32.2705    12.6949   -12.8727 H             1 RES     
    2949 C           32.8678    14.4764   -13.9438 C             1 RES     
    2950 H           33.9195    14.1924   -13.9815 H             1 RES     
    2951 H           32.7868    15.5567   -13.8234 H             1 RES     
    2952 C           32.1749    14.0527   -15.2522 C             1 RES     
    2953 H           31.1232    14.3367   -15.2145 H             1 RES     
    2954 H           32.2559    12.9724   -15.3725 H             1 RES     
    2955 C           32.8533    14.7539   -16.4437 C             1 RES     
    2956 H           33.9049    14.4698   -16.4813 H             1 RES     
    2957 H           32.7723    15.8342   -16.3233 H             1 RES     
    2958 C           32.1603    14.3301   -17.7520 C             1 RES     
    2959 H           31.1087    14.6142   -17.7144 H             1 RES     
    2960 H           32.2413    13.2498   -17.8724 H             1 RES     
    2961 C           32.8387    15.0313   -18.9435 C             1 RES     
    2962 H           33.8904    14.7473   -18.9812 H             1 RES     
    2963 H           32.7577    16.1116   -18.8232 H             1 RES     
    2964 C           32.1458    14.6076   -20.2519 C             1 RES     
    2965 H           31.0941    14.8916   -20.2143 H             1 RES     
    2966 H           32.2268    13.5273   -20.3723 H             1 RES     
    2967 C           32.8242    15.3088   -21.4434 C             1 RES     
    2968 H           33.8758    15.0247   -21.4811 H             1 RES     
    2969 H           32.7432    16.3891   -21.3230 H             1 RES     
    2970 C           32.1312    14.8850   -22.7518 C             1 RES     
    2971 H           31.0795    15.1691   -22.7141 H             1 RES     
    2972 H           32.2122    13.8047   -22.8721 H             1 RES     
    2973 C           32.8096    15.5862   -23.9433 C             1 RES     
    2974 H           33.8613    15.3022   -23.9809 H             1 RES     
    2975 H           32.7286    16.6665   -23.8229 H             1 RES     
    2976 C           32.1166    15.1625   -25.2516 C             1 RES     
    2977 H           31.0650    15.4465   -25.2140 H             1 RES     
    2978 H           32.1976    14.0822   -25.3720 H             1 RES     
    2979 C           32.7642    15.8318   -26.3890 C             1 RES     
    2980 H           32.0834    16.6518   -26.2940 H             1 RES     
    2981 H           32.9165    15.6124   -27.4253 H             1 RES     
    2982 H           33.7000    16.0906   -25.9378 H             1 RES     
    2983 N           16.4317    27.3861     5.0000 N             1 RES     
    2984 C           16.5425    28.8484     5.2164 C             1 RES     
    2985 H           17.4396    29.2704     4.7159 H             1 RES     
    2986 H           16.6418    29.0856     6.2997 H             1 RES     
    2987 H           15.6434    29.3791     4.8309 H             1 RES     
    2988 C           17.6570    26.7176     5.4991 C             1 RES     
    2989 H           17.6103    25.6187     5.3296 H             1 RES     
    2990 H           17.7900    26.8903     6.5909 H             1 RES     
    2991 H           18.5695    27.1099     5.0024 H             1 RES     
    2992 C           15.2756    26.8851     5.7821 C             1 RES     
    2993 H           15.4001    27.0944     6.8687 H             1 RES     
    2994 H           15.1563    25.7846     5.6630 H             1 RES     
    2995 H           14.3279    27.3683     5.4530 H             1 RES     
    2996 C           16.1877    27.0675     3.5602 C             1 RES     
    2997 H           15.2405    27.5434     3.2192 H             1 RES     
    2998 H           16.0640    25.9689     3.4280 H             1 RES     
    2999 C           17.2897    27.5152     2.5893 C             1 RES     
    3000 H           18.2569    27.0071     2.7771 H             1 RES     
    3001 H           17.4154    28.6162     2.5636 H             1 RES     
    3002 P           16.3573    28.3400     0.4251 P             1 RES     
    3003 O           16.1598    27.9769    -1.1206 O             1 RES     
    3004 O           17.1245    27.1443     1.1609 O             1 RES     
    3005 O           17.2543    29.6639     0.4782 O             1 RES     
    3006 O           14.8945    28.5032     1.0524 O             1 RES     
    3007 C           15.4465    29.1060    -1.7698 C             1 RES     
    3008 H           16.0389    30.0154    -1.6696 H             1 RES     
    3009 H           14.4782    29.2477    -1.2898 H             1 RES     
    3010 C           15.8381    27.4110    -3.5864 C             1 RES     
    3011 H           16.9048    27.4174    -3.3625 H             1 RES     
    3012 H           15.3441    26.6497    -2.9827 H             1 RES     
    3013 C           15.2377    28.7917    -3.2629 C             1 RES     
    3014 H           14.1710    28.7853    -3.4869 H             1 RES     
    3015 C           16.9414    27.7410    -5.4073 C             1 RES     
    3016 O           17.7301    28.2630    -4.6210 O             1 RES     
    3017 O           15.6388    27.1110    -5.0117 O             1 RES     
    3018 C           17.1402    27.6404    -6.8198 C             1 RES     
    3019 H           16.3297    28.1507    -7.3401 H             1 RES     
    3020 H           17.1484    26.5877    -7.1027 H             1 RES     
    3021 C           18.4842    28.2857    -7.2058 C             1 RES     
    3022 H           19.2947    27.7753    -6.6855 H             1 RES     
    3023 H           18.4760    29.3383    -6.9230 H             1 RES     
    3024 C           18.6944    28.1648    -8.7266 C             1 RES     
    3025 H           17.8839    28.6751    -9.2469 H             1 RES     
    3026 H           18.7026    27.1121    -9.0095 H             1 RES     
    3027 C           20.0384    28.8101    -9.1127 C             1 RES     
    3028 H           20.8489    28.2998    -8.5924 H             1 RES     
    3029 H           20.0302    29.8627    -8.8298 H             1 RES     
    3030 C           20.2486    28.6892   -10.6334 C             1 RES     
    3031 H           19.4381    29.1995   -11.1537 H             1 RES     
    3032 H           20.2568    27.6366   -10.9163 H             1 RES     
    3033 C           21.5926    29.3345   -11.0195 C             1 RES     
    3034 H           22.4031    28.8242   -10.4992 H             1 RES     
    3035 H           21.5844    30.3871   -10.7366 H             1 RES     
    3036 C           21.8028    29.2136   -12.5403 C             1 RES     
    3037 H           20.9923    29.7239   -13.0606 H             1 RES     
    3038 H           21.8110    28.1610   -12.8231 H             1 RES     
    3039 C           23.1468    29.8589   -12.9263 C             1 RES     
    3040 H           23.9573    29.3486   -12.4060 H             1 RES     
    3041 H           23.1386    30.9115   -12.6434 H             1 RES     
    3042 C           23.3570    29.7380   -14.4471 C             1 RES     
    3043 H           22.5465    30.2483   -14.9674 H             1 RES     
    3044 H           23.3652    28.6854   -14.7299 H             1 RES     
    3045 C           24.7010    30.3833   -14.8331 C             1 RES     
    3046 H           25.5115    29.8730   -14.3128 H             1 RES     
    3047 H           24.6928    31.4359   -14.5503 H             1 RES     
    3048 C           24.9112    30.2624   -16.3539 C             1 RES     
    3049 H           24.1007    30.7727   -16.8742 H             1 RES     
    3050 H           24.9194    29.2098   -16.6368 H             1 RES     
    3051 C           26.2552    30.9077   -16.7399 C             1 RES     
    3052 H           27.0657    30.3974   -16.2196 H             1 RES     
    3053 H           26.2470    31.9603   -16.4571 H             1 RES     
    3054 C           26.4654    30.7868   -18.2607 C             1 RES     
    3055 H           25.6549    31.2971   -18.7810 H             1 RES     
    3056 H           26.4736    29.7342   -18.5436 H             1 RES     
    3057 C           27.8094    31.4321   -18.6468 C             1 RES     
    3058 H           28.6199    30.9218   -18.1265 H             1 RES     
    3059 H           27.8012    32.4847   -18.3639 H             1 RES     
    3060 C           28.0196    31.3112   -20.1675 C             1 RES     
    3061 H           27.2091    31.8215   -20.6878 H             1 RES     
    3062 H           28.0278    30.2586   -20.4504 H             1 RES     
    3063 C           29.3636    31.9565   -20.5536 C             1 RES     
    3064 H           30.1741    31.4462   -20.0333 H             1 RES     
    3065 H           29.3555    33.0091   -20.2707 H             1 RES     
    3066 C           29.5643    31.8411   -22.0052 C             1 RES     
    3067 H           30.0563    30.9017   -21.8625 H             1 RES     
    3068 H           30.0781    32.4026   -22.7575 H             1 RES     
    3069 H           28.5535    31.6713   -22.3148 H             1 RES     
    3070 C           15.3462    29.2189    -5.3317 C             1 RES     
    3071 O           14.6199    28.2295    -5.4118 O             1 RES     
    3072 O           15.8790    29.7800    -4.0467 O             1 RES     
    3073 C           15.7918    29.9990    -6.4442 C             1 RES     
    3074 H           16.8812    29.9927    -6.4819 H             1 RES     
    3075 H           15.4378    31.0228    -6.3239 H             1 RES     
    3076 C           15.2300    29.4124    -7.7526 C             1 RES     
    3077 H           14.1406    29.4186    -7.7149 H             1 RES     
    3078 H           15.5840    28.3885    -7.8730 H             1 RES     
    3079 C           15.7069    30.2635    -8.9441 C             1 RES     
    3080 H           16.7963    30.2573    -8.9817 H             1 RES     
    3081 H           15.3529    31.2874    -8.8237 H             1 RES     
    3082 C           15.1451    29.6769   -10.2525 C             1 RES     
    3083 H           14.0557    29.6832   -10.2148 H             1 RES     
    3084 H           15.4991    28.6531   -10.3728 H             1 RES     
    3085 C           15.6220    30.5281   -11.4439 C             1 RES     
    3086 H           16.7114    30.5218   -11.4816 H             1 RES     
    3087 H           15.2680    31.5519   -11.3236 H             1 RES     
    3088 C           15.0602    29.9415   -12.7523 C             1 RES     
    3089 H           13.9708    29.9477   -12.7147 H             1 RES     
    3090 H           15.4142    28.9176   -12.8727 H             1 RES     
    3091 C           15.5372    30.7926   -13.9438 C             1 RES     
    3092 H           16.6265    30.7864   -13.9815 H             1 RES     
    3093 H           15.1831    31.8165   -13.8234 H             1 RES     
    3094 C           14.9753    30.2060   -15.2522 C             1 RES     
    3095 H           13.8860    30.2123   -15.2145 H             1 RES     
    3096 H           15.3293    29.1822   -15.3725 H             1 RES     
    3097 C           15.4523    31.0572   -16.4437 C             1 RES     
    3098 H           16.5416    31.0509   -16.4813 H             1 RES     
    3099 H           15.0982    32.0810   -16.3233 H             1 RES     
    3100 C           14.8904    30.4706   -17.7520 C             1 RES     
    3101 H           13.8011    30.4768   -17.7144 H             1 RES     
    3102 H           15.2444    29.4467   -17.8724 H             1 RES     
    3103 C           15.3674    31.3217   -18.9435 C             1 RES     
    3104 H           16.4567    31.3154   -18.9812 H             1 RES     
    3105 H           15.0133    32.3455   -18.8232 H             1 RES     
    3106 C           14.8055    30.7351   -20.2519 C             1 RES     
    3107 H           13.7162    30.7414   -20.2143 H             1 RES     
    3108 H           15.1595    29.7113   -20.3723 H             1 RES     
    3109 C           15.2825    31.5862   -21.4434 C             1 RES     
    3110 H           16.3718    31.5800   -21.4811 H             1 RES     
    3111 H           14.9284    32.6101   -21.3230 H             1 RES     
    3112 C           14.7206    30.9997   -22.7518 C             1 RES     
    3113 H           13.6313    31.0059   -22.7141 H             1 RES     
    3114 H           15.0747    29.9758   -22.8721 H             1 RES     
    3115 C           15.1976    31.8508   -23.9433 C             1 RES     
    3116 H           16.2869    31.8445   -23.9809 H             1 RES     
    3117 H           14.8436    32.8746   -23.8229 H             1 RES     
    3118 C           14.6357    31.2642   -25.2516 C             1 RES     
    3119 H           13.5464    31.2705   -25.2140 H             1 RES     
    3120 H           14.9898    30.2404   -25.3720 H             1 RES     
    3121 C           15.0910    32.0766   -26.3890 C             1 RES     
    3122 H           14.2235    32.6958   -26.2940 H             1 RES     
    3123 H           15.2943    31.9034   -27.4253 H             1 RES     
    3124 H           15.9298    32.5657   -25.9378 H             1 RES     
    3125 N           10.9545    38.3406     5.0000 N             1 RES     
    3126 C           11.3010    39.7655     5.2164 C             1 RES     
    3127 H           12.2547    40.0363     4.7159 H             1 RES     
    3128 H           11.4375    39.9834     6.2997 H             1 RES     
    3129 H           10.5000    40.4350     4.8309 H             1 RES     
    3130 C           12.0551    37.4821     5.4991 C             1 RES     
    3131 H           11.8307    36.4054     5.3296 H             1 RES     
    3132 H           12.2144    37.6310     6.5909 H             1 RES     
    3133 H           13.0192    37.7212     5.0024 H             1 RES     
    3134 C            9.7324    38.0337     5.7821 C             1 RES     
    3135 H            9.8892    38.2200     6.8687 H             1 RES     
    3136 H            9.4361    36.9671     5.6630 H             1 RES     
    3137 H            8.8757    38.6642     5.4530 H             1 RES     
    3138 C           10.6620    38.0658     3.5602 C             1 RES     
    3139 H            9.8046    38.6890     3.2192 H             1 RES     
    3140 H           10.3618    37.0018     3.4280 H             1 RES     
    3141 C           11.8220    38.3287     2.5893 C             1 RES     
    3142 H           12.6940    37.6704     2.7771 H             1 RES     
    3143 H           12.1247    39.3948     2.5636 H             1 RES     
    3144 P           11.0358    39.2939     0.4251 P             1 RES     
    3145 O           10.7820    38.9676    -1.1206 O             1 RES     
    3146 O           11.5989    37.9895     1.1609 O             1 RES     
    3147 O           12.1357    40.4547     0.4782 O             1 RES     
    3148 O            9.6188    39.6922     1.0524 O             1 RES     
    3149 C           10.2613    40.1975    -1.7698 C             1 RES     
    3150 H           10.9934    40.9988    -1.6696 H             1 RES     
    3151 H            9.3288    40.4945    -1.2898 H             1 RES     
    3152 C           10.3728    38.4614    -3.5864 C             1 RES     
    3153 H           11.4264    38.2947    -3.3625 H             1 RES     
    3154 H            9.7618    37.7904    -2.9827 H             1 RES     
    3155 C           10.0043    39.9213    -3.2629 C             1 RES     
    3156 H            8.9507    40.0880    -3.4869 H             1 RES     
    3157 C           11.5150    38.6080    -5.4073 C             1 RES     
    3158 O           12.3779    38.9951    -4.6210 O             1 RES     
    3159 O           10.1275    38.1978    -5.0117 O             1 RES     
    3160 C           11.6949    38.4765    -6.8198 C             1 RES     
    3161 H           10.9779    39.1116    -7.3401 H             1 RES     
    3162 H           11.5321    37.4365    -7.1027 H             1 RES     
    3163 C           13.1257    38.8952    -7.2058 C             1 RES     
    3164 H           13.8427    38.2602    -6.6855 H             1 RES     
    3165 H           13.2884    39.9352    -6.9230 H             1 RES     
    3166 C           13.3136    38.7418    -8.7266 C             1 RES     
    3167 H           12.5965    39.3769    -9.2469 H             1 RES     
    3168 H           13.1508    37.7018    -9.0095 H             1 RES     
    3169 C           14.7444    39.1605    -9.1127 C             1 RES     
    3170 H           15.4614    38.5255    -8.5924 H             1 RES     
    3171 H           14.9071    40.2006    -8.8298 H             1 RES     
    3172 C           14.9322    39.0071   -10.6334 C             1 RES     
    3173 H           14.2152    39.6422   -11.1537 H             1 RES     
    3174 H           14.7695    37.9671   -10.9163 H             1 RES     
    3175 C           16.3631    39.4259   -11.0195 C             1 RES     
    3176 H           17.0801    38.7908   -10.4992 H             1 RES     
    3177 H           16.5258    40.4659   -10.7366 H             1 RES     
    3178 C           16.5509    39.2725   -12.5403 C             1 RES     
    3179 H           15.8339    39.9075   -13.0606 H             1 RES     
    3180 H           16.3882    38.2325   -12.8231 H             1 RES     
    3181 C           17.9817    39.6912   -12.9263 C             1 RES     
    3182 H           18.6988    39.0561   -12.4060 H             1 RES     
    3183 H           18.1445    40.7312   -12.6434 H             1 RES     
    3184 C           18.1696    39.5378   -14.4471 C             1 RES     
    3185 H           17.4526    40.1728   -14.9674 H             1 RES     
    3186 H           18.0069    38.4978   -14.7299 H             1 RES     
    3187 C           19.6004    39.9565   -14.8331 C             1 RES     
    3188 H           20.3174    39.3215   -14.3128 H             1 RES     
    3189 H           19.7632    40.9965   -14.5503 H             1 RES     
    3190 C           19.7883    39.8031   -16.3539 C             1 RES     
    3191 H           19.0713    40.4382   -16.8742 H             1 RES     
    3192 H           19.6256    38.7631   -16.6368 H             1 RES     
    3193 C           21.2191    40.2218   -16.7399 C             1 RES     
    3194 H           21.9361    39.5868   -16.2196 H             1 RES     
    3195 H           21.3819    41.2618   -16.4571 H             1 RES     
    3196 C           21.4070    40.0684   -18.2607 C             1 RES     
    3197 H           20.6900    40.7035   -18.7810 H             1 RES     
    3198 H           21.2443    39.0284   -18.5436 H             1 RES     
    3199 C           22.8378    40.4871   -18.6468 C             1 RES     
    3200 H           23.5548    39.8521   -18.1265 H             1 RES     
    3201 H           23.0006    41.5272   -18.3639 H             1 RES     
    3202 C           23.0257    40.3337   -20.1675 C             1 RES     
    3203 H           22.3087    40.9688   -20.6878 H             1 RES     
    3204 H           22.8629    39.2937   -20.4504 H             1 RES     
    3205 C           24.4565    40.7525   -20.5536 C             1 RES     
    3206 H           25.1735    40.1174   -20.0333 H             1 RES     
    3207 H           24.6192    41.7925   -20.2707 H             1 RES     
    3208 C           24.6358    40.6060   -22.0052 C             1 RES     
    3209 H           24.9690    39.5993   -21.8625 H             1 RES     
    3210 H           25.2339    41.0767   -22.7575 H             1 RES     
    3211 H           23.6109    40.6025   -22.3148 H             1 RES     
    3212 C           10.1807    40.3251    -5.3317 C             1 RES     
    3213 O            9.3035    39.4667    -5.4118 O             1 RES     
    3214 O           10.7974    40.7924    -4.0467 O             1 RES     
    3215 C           10.7470    41.0226    -6.4442 C             1 RES     
    3216 H           11.8208    40.8397    -6.4819 H             1 RES     
    3217 H           10.5637    42.0903    -6.3239 H             1 RES     
    3218 C           10.0974    40.5350    -7.7526 C             1 RES     
    3219 H            9.0235    40.7178    -7.7149 H             1 RES     
    3220 H           10.2806    39.4672    -7.8730 H             1 RES     
    3221 C           10.7061    41.2974    -8.9441 C             1 RES     
    3222 H           11.7800    41.1145    -8.9817 H             1 RES     
    3223 H           10.5229    42.3652    -8.8237 H             1 RES     
    3224 C           10.0565    40.8098   -10.2525 C             1 RES     
    3225 H            8.9826    40.9927   -10.2148 H             1 RES     
    3226 H           10.2398    39.7420   -10.3728 H             1 RES     
    3227 C           10.6653    41.5722   -11.4439 C             1 RES     
    3228 H           11.7392    41.3894   -11.4816 H             1 RES     
    3229 H           10.4820    42.6400   -11.3236 H             1 RES     
    3230 C           10.0157    41.0846   -12.7523 C             1 RES     
    3231 H            8.9418    41.2675   -12.7147 H             1 RES     
    3232 H           10.1989    40.0169   -12.8727 H             1 RES     
    3233 C           10.6244    41.8471   -13.9438 C             1 RES     
    3234 H           11.6983    41.6642   -13.9815 H             1 RES     
    3235 H           10.4412    42.9148   -13.8234 H             1 RES     
    3236 C            9.9748    41.3594   -15.2522 C             1 RES     
    3237 H            8.9009    41.5423   -15.2145 H             1 RES     
    3238 H           10.1581    40.2917   -15.3725 H             1 RES     
    3239 C           10.5836    42.1219   -16.4437 C             1 RES     
    3240 H           11.6575    41.9390   -16.4813 H             1 RES     
    3241 H           10.4003    43.1896   -16.3233 H             1 RES     
    3242 C            9.9340    41.6342   -17.7520 C             1 RES     
    3243 H            8.8601    41.8171   -17.7144 H             1 RES     
    3244 H           10.1172    40.5665   -17.8724 H             1 RES     
    3245 C           10.5427    42.3967   -18.9435 C             1 RES     
    3246 H           11.6166    42.2138   -18.9812 H             1 RES     
    3247 H           10.3595    43.4644   -18.8232 H             1 RES     
    3248 C            9.8931    41.9090   -20.2519 C             1 RES     
    3249 H            8.8192    42.0919   -20.2143 H             1 RES     
    3250 H           10.0764    40.8413   -20.3723 H             1 RES     
    3251 C           10.5019    42.6715   -21.4434 C             1 RES     
    3252 H           11.5758    42.4886   -21.4811 H             1 RES     
    3253 H           10.3186    43.7392   -21.3230 H             1 RES     
    3254 C            9.8523    42.1838   -22.7518 C             1 RES     
    3255 H            8.7784    42.3667   -22.7141 H             1 RES     
    3256 H           10.0355    41.1161   -22.8721 H             1 RES     
    3257 C           10.4610    42.9463   -23.9433 C             1 RES     
    3258 H           11.5349    42.7634   -23.9809 H             1 RES     
    3259 H           10.2778    44.0140   -23.8229 H             1 RES     
    3260 C            9.8114    42.4586   -25.2516 C             1 RES     
    3261 H            8.7375    42.6415   -25.2140 H             1 RES     
    3262 H            9.9947    41.3909   -25.3720 H             1 RES     
    3263 C           10.3925    43.1865   -26.3890 C             1 RES     
    3264 H            9.6369    43.9381   -26.2940 H             1 RES     
    3265 H           10.5650    42.9826   -27.4253 H             1 RES     
    3266 H           11.2995    43.5330   -25.9378 H             1 RES     
    3267 N           27.3861    32.8634     5.0000 N             1 RES     
    3268 C           27.4115    34.3296     5.2164 C             1 RES     
    3269 H           28.2825    34.8032     4.7159 H             1 RES     
    3270 H           27.4968    34.5722     6.2997 H             1 RES     
    3271 H           26.4830    34.8069     4.8309 H             1 RES     
    3272 C           28.6483    32.2674     5.4991 C             1 RES     
    3273 H           28.6658    31.1677     5.3296 H             1 RES     
    3274 H           28.7711    32.4476     6.5909 H             1 RES     
    3275 H           29.5365    32.7123     5.0024 H             1 RES     
    3276 C           26.2612    32.2958     5.7821 C             1 RES     
    3277 H           26.3733    32.5119     6.8687 H             1 RES     
    3278 H           26.2063    31.1901     5.6630 H             1 RES     
    3279 H           25.2870    32.7228     5.4530 H             1 RES     
    3280 C           27.1611    32.5311     3.5602 C             1 RES     
    3281 H           26.1878    32.9509     3.2192 H             1 RES     
    3282 H           27.1018    31.4271     3.4280 H             1 RES     
    3283 C           28.2352    33.0422     2.5893 C             1 RES     
    3284 H           29.2304    32.5914     2.7771 H             1 RES     
    3285 H           28.2964    34.1487     2.5636 H             1 RES     
    3286 P           27.2563    33.8113     0.4251 P             1 RES     
    3287 O           27.0803    33.4372    -1.1206 O             1 RES     
    3288 O           28.0919    32.6623     1.1609 O             1 RES     
    3289 O           28.0745    35.1852     0.4782 O             1 RES     
    3290 O           25.7864    33.8888     1.0524 O             1 RES     
    3291 C           26.3023    34.5228    -1.7698 C             1 RES     
    3292 H           26.8407    35.4653    -1.6696 H             1 RES     
    3293 H           25.3274    34.6079    -1.2898 H             1 RES     
    3294 C           26.7921    32.8536    -3.5864 C             1 RES     
    3295 H           27.8566    32.9222    -3.3625 H             1 RES     
    3296 H           26.3433    32.0648    -2.9827 H             1 RES     
    3297 C           26.1122    34.1969    -3.2629 C             1 RES     
    3298 H           25.0477    34.1283    -3.4869 H             1 RES     
    3299 C           27.8743    33.2473    -5.4073 C             1 RES     
    3300 O           28.6312    33.8144    -4.6210 O             1 RES     
    3301 O           26.6107    32.5425    -5.0117 O             1 RES     
    3302 C           28.0786    33.1585    -6.8198 C             1 RES     
    3303 H           27.2397    33.6207    -7.3401 H             1 RES     
    3304 H           28.1481    32.1081    -7.1027 H             1 RES     
    3305 C           29.3827    33.8811    -7.2058 C             1 RES     
    3306 H           30.2216    33.4189    -6.6855 H             1 RES     
    3307 H           29.3132    34.9314    -6.9230 H             1 RES     
    3308 C           29.5996    33.7726    -8.7266 C             1 RES     
    3309 H           28.7607    34.2348    -9.2469 H             1 RES     
    3310 H           29.6691    32.7223    -9.0095 H             1 RES     
    3311 C           30.9036    34.4952    -9.1127 C             1 RES     
    3312 H           31.7426    34.0330    -8.5924 H             1 RES     
    3313 H           30.8341    35.5456    -8.8298 H             1 RES     
    3314 C           31.1206    34.3868   -10.6334 C             1 RES     
    3315 H           30.2817    34.8490   -11.1537 H             1 RES     
    3316 H           31.1901    33.3364   -10.9163 H             1 RES     
    3317 C           32.4246    35.1093   -11.0195 C             1 RES     
    3318 H           33.2635    34.6472   -10.4992 H             1 RES     
    3319 H           32.3551    36.1597   -10.7366 H             1 RES     
    3320 C           32.6416    35.0009   -12.5403 C             1 RES     
    3321 H           31.8027    35.4631   -13.0606 H             1 RES     
    3322 H           32.7111    33.9506   -12.8231 H             1 RES     
    3323 C           33.9456    35.7235   -12.9263 C             1 RES     
    3324 H           34.7845    35.2613   -12.4060 H             1 RES     
    3325 H           33.8761    36.7738   -12.6434 H             1 RES     
    3326 C           34.1626    35.6151   -14.4471 C             1 RES     
    3327 H           33.3236    36.0772   -14.9674 H             1 RES     
    3328 H           34.2321    34.5647   -14.7299 H             1 RES     
    3329 C           35.4666    36.3376   -14.8331 C             1 RES     
    3330 H           36.3055    35.8754   -14.3128 H             1 RES     
    3331 H           35.3971    37.3880   -14.5503 H             1 RES     
    3332 C           35.6835    36.2292   -16.3539 C             1 RES     
    3333 H           34.8446    36.6914   -16.8742 H             1 RES     
    3334 H           35.7530    35.1788   -16.6368 H             1 RES     
    3335 C           36.9876    36.9518   -16.7399 C             1 RES     
    3336 H           37.8265    36.4896   -16.2196 H             1 RES     
    3337 H           36.9181    38.0021   -16.4571 H             1 RES     
    3338 C           37.2045    36.8433   -18.2607 C             1 RES     
    3339 H           36.3656    37.3055   -18.7810 H             1 RES     
    3340 H           37.2740    35.7930   -18.5436 H             1 RES     
    3341 C           38.5085    37.5659   -18.6468 C             1 RES     
    3342 H           39.3474    37.1037   -18.1265 H             1 RES     
    3343 H           38.4390    38.6163   -18.3639 H             1 RES     
    3344 C           38.7255    37.4575   -20.1675 C             1 RES     
    3345 H           37.8866    37.9197   -20.6878 H             1 RES     
    3346 H           38.7950    36.4071   -20.4504 H             1 RES     
    3347 C           40.0295    38.1801   -20.5536 C             1 RES     
    3348 H           40.8684    37.7179   -20.0333 H             1 RES     
    3349 H           39.9600    39.2304   -20.2707 H             1 RES     
    3350 C           40.2366    38.0766   -22.0052 C             1 RES     
    3351 H           40.7826    37.1675   -21.8625 H             1 RES     
    3352 H           40.7168    38.6670   -22.7575 H             1 RES     
    3353 H           39.2375    37.8481   -22.3148 H             1 RES     
    3354 C           26.1957    34.6297    -5.3317 C             1 RES     
    3355 O           25.5283    33.5996    -5.4118 O             1 RES     
    3356 O           26.6948    35.2209    -4.0467 O             1 RES     
    3357 C           26.5950    35.4344    -6.4442 C             1 RES     
    3358 H           27.6828    35.4917    -6.4819 H             1 RES     
    3359 H           26.1819    36.4359    -6.3239 H             1 RES     
    3360 C           26.0683    34.8161    -7.7526 C             1 RES     
    3361 H           24.9805    34.7588    -7.7149 H             1 RES     
    3362 H           26.4814    33.8146    -7.8730 H             1 RES     
    3363 C           26.4948    35.6936    -8.9441 C             1 RES     
    3364 H           27.5827    35.7509    -8.9817 H             1 RES     
    3365 H           26.0817    36.6950    -8.8237 H             1 RES     
    3366 C           25.9681    35.0752   -10.2525 C             1 RES     
    3367 H           24.8803    35.0180   -10.2148 H             1 RES     
    3368 H           26.3813    34.0738   -10.3728 H             1 RES     
    3369 C           26.3947    35.9527   -11.4439 C             1 RES     
    3370 H           27.4825    36.0100   -11.4816 H             1 RES     
    3371 H           25.9815    36.9542   -11.3236 H             1 RES     
    3372 C           25.8679    35.3344   -12.7523 C             1 RES     
    3373 H           24.7801    35.2771   -12.7147 H             1 RES     
    3374 H           26.2811    34.3329   -12.8727 H             1 RES     
    3375 C           26.2945    36.2119   -13.9438 C             1 RES     
    3376 H           27.3823    36.2692   -13.9815 H             1 RES     
    3377 H           25.8813    37.2133   -13.8234 H             1 RES     
    3378 C           25.7678    35.5935   -15.2522 C             1 RES     
    3379 H           24.6799    35.5362   -15.2145 H             1 RES     
    3380 H           26.1809    34.5921   -15.3725 H             1 RES     
    3381 C           26.1943    36.4710   -16.4437 C             1 RES     
    3382 H           27.2822    36.5283   -16.4813 H             1 RES     
    3383 H           25.7812    37.4725   -16.3233 H             1 RES     
    3384 C           25.6676    35.8527   -17.7520 C             1 RES     
    3385 H           24.5798    35.7954   -17.7144 H             1 RES     
    3386 H           26.0807    34.8512   -17.8724 H             1 RES     
    3387 C           26.0941    36.7302   -18.9435 C             1 RES     
    3388 H           27.1820    36.7874   -18.9812 H             1 RES     
    3389 H           25.6810    37.7316   -18.8232 H             1 RES     
    3390 C           25.5674    36.1118   -20.2519 C             1 RES     
    3391 H           24.4796    36.0545   -20.2143 H             1 RES     
    3392 H           25.9806    35.1104   -20.3723 H             1 RES     
    3393 C           25.9940    36.9893   -21.4434 C             1 RES     
    3394 H           27.0818    37.0466   -21.4811 H             1 RES     
    3395 H           25.5808    37.9908   -21.3230 H             1 RES     
    3396 C           25.4673    36.3710   -22.7518 C             1 RES     
    3397 H           24.3794    36.3137   -22.7141 H             1 RES     
    3398 H           25.8804    35.3695   -22.8721 H             1 RES     
    3399 C           25.8938    37.2485   -23.9433 C             1 RES     
    3400 H           26.9816    37.3057   -23.9809 H             1 RES     
    3401 H           25.4807    38.2499   -23.8229 H             1 RES     
    3402 C           25.3671    36.6301   -25.2516 C             1 RES     
    3403 H           24.2792    36.5728   -25.2140 H             1 RES     
    3404 H           25.7802    35.6286   -25.3720 H             1 RES     
    3405 C           25.7742    37.4677   -26.3890 C             1 RES     
    3406 H           24.8721    38.0352   -26.2940 H             1 RES     
    3407 H           25.9872    37.3066   -27.4253 H             1 RES     
    3408 H           26.5830    38.0048   -25.9378 H             1 RES     
    3409 N           43.8178     5.4772     5.0000 N             1 RES     
    3410 C           43.6967     6.9387     5.2164 C             1 RES     
    3411 H           44.5160     7.4968     4.7159 H             1 RES     
    3412 H           43.7574     7.1886     6.2997 H             1 RES     
    3413 H           42.7252     7.3209     4.8309 H             1 RES     
    3414 C           45.1332     5.0103     5.4991 C             1 RES     
    3415 H           45.2604     3.9177     5.3296 H             1 RES     
    3416 H           45.2373     5.2018     6.5909 H             1 RES     
    3417 H           45.9725     5.5416     5.0024 H             1 RES     
    3418 C           42.7552     4.8002     5.7821 C             1 RES     
    3419 H           42.8451     5.0264     6.8687 H             1 RES     
    3420 H           42.8109     3.6946     5.6630 H             1 RES     
    3421 H           41.7432     5.1279     5.4530 H             1 RES     
    3422 C           43.6271     5.1241     3.5602 C             1 RES     
    3423 H           42.6167     5.4447     3.2192 H             1 RES     
    3424 H           43.6782     4.0197     3.4280 H             1 RES     
    3425 C           44.6447     5.7399     2.5893 C             1 RES     
    3426 H           45.6800     5.3907     2.7771 H             1 RES     
    3427 H           44.5952     6.8470     2.5636 H             1 RES     
    3428 P           43.5939     6.4075     0.4251 P             1 RES     
    3429 O           43.4562     6.0177    -1.1206 O             1 RES     
    3430 O           44.5401     5.3476     1.1609 O             1 RES     
    3431 O           44.2710     7.8562     0.4782 O             1 RES     
    3432 O           42.1237     6.3379     1.0524 O             1 RES     
    3433 C           42.5737     7.0202    -1.7698 C             1 RES     
    3434 H           43.0154     8.0117    -1.6696 H             1 RES     
    3435 H           41.5952     7.0075    -1.2898 H             1 RES     
    3436 C           43.2277     5.4082    -3.5864 C             1 RES     
    3437 H           44.2801     5.5827    -3.3625 H             1 RES     
    3438 H           42.8599     4.5786    -2.9827 H             1 RES     
    3439 C           42.4171     6.6770    -3.2629 C             1 RES     
    3440 H           41.3648     6.5025    -3.4869 H             1 RES     
    3441 C           44.2652     5.9080    -5.4073 C             1 RES     
    3442 O           44.9617     6.5478    -4.6210 O             1 RES     
    3443 O           43.0782     5.0806    -5.0117 O             1 RES     
    3444 C           44.4774     5.8400    -6.8198 C             1 RES     
    3445 H           43.5965     6.2161    -7.3401 H             1 RES     
    3446 H           44.6514     4.8018    -7.1027 H             1 RES     
    3447 C           45.7028     6.6891    -7.2058 C             1 RES     
    3448 H           46.5836     6.3130    -6.6855 H             1 RES     
    3449 H           45.5288     7.7273    -6.9230 H             1 RES     
    3450 C           45.9295     6.6029    -8.7266 C             1 RES     
    3451 H           45.0486     6.9790    -9.2469 H             1 RES     
    3452 H           46.1035     5.5647    -9.0095 H             1 RES     
    3453 C           47.1549     7.4520    -9.1127 C             1 RES     
    3454 H           48.0357     7.0759    -8.5924 H             1 RES     
    3455 H           46.9809     8.4902    -8.8298 H             1 RES     
    3456 C           47.3816     7.3658   -10.6334 C             1 RES     
    3457 H           46.5007     7.7419   -11.1537 H             1 RES     
    3458 H           47.5556     6.3276   -10.9163 H             1 RES     
    3459 C           48.6069     8.2149   -11.0195 C             1 RES     
    3460 H           49.4878     7.8388   -10.4992 H             1 RES     
    3461 H           48.4329     9.2531   -10.7366 H             1 RES     
    3462 C           48.8336     8.1287   -12.5403 C             1 RES     
    3463 H           47.9528     8.5049   -13.0606 H             1 RES     
    3464 H           49.0076     7.0905   -12.8231 H             1 RES     
    3465 C           50.0590     8.9778   -12.9263 C             1 RES     
    3466 H           50.9399     8.6017   -12.4060 H             1 RES     
    3467 H           49.8850    10.0160   -12.6434 H             1 RES     
    3468 C           50.2857     8.8916   -14.4471 C             1 RES     
    3469 H           49.4049     9.2678   -14.9674 H             1 RES     
    3470 H           50.4597     7.8534   -14.7299 H             1 RES     
    3471 C           51.5111     9.7407   -14.8331 C             1 RES     
    3472 H           52.3919     9.3646   -14.3128 H             1 RES     
    3473 H           51.3371    10.7789   -14.5503 H             1 RES     
    3474 C           51.7378     9.6545   -16.3539 C             1 RES     
    3475 H           50.8569    10.0307   -16.8742 H             1 RES     
    3476 H           51.9118     8.6163   -16.6368 H             1 RES     
    3477 C           52.9632    10.5037   -16.7399 C             1 RES     
    3478 H           53.8440    10.1275   -16.2196 H             1 RES     
    3479 H           52.7892    11.5418   -16.4571 H             1 RES     
    3480 C           53.1899    10.4174   -18.2607 C             1 RES     
    3481 H           52.3090    10.7936   -18.7810 H             1 RES     
    3482 H           53.3639     9.3792   -18.5436 H             1 RES     
    3483 C           54.4152    11.2666   -18.6468 C             1 RES     
    3484 H           55.2961    10.8904   -18.1265 H             1 RES     
    3485 H           54.2412    12.3047   -18.3639 H             1 RES     
    3486 C           54.6419    11.1803   -20.1675 C             1 RES     
    3487 H           53.7611    11.5565   -20.6878 H             1 RES     
    3488 H           54.8159    10.1421   -20.4504 H             1 RES     
    3489 C           55.8673    12.0295   -20.5536 C             1 RES     
    3490 H           56.7482    11.6533   -20.0333 H             1 RES     
    3491 H           55.6933    13.0676   -20.2707 H             1 RES     
    3492 C           56.0837    11.9471   -22.0052 C             1 RES     
    3493 H           56.7177    11.0971   -21.8625 H             1 RES     
    3494 H           56.5026    12.5826   -22.7575 H             1 RES     
    3495 H           55.1124    11.6201   -22.3148 H             1 RES     
    3496 C           42.4570     7.1159    -5.3317 C             1 RES     
    3497 O           41.8957     6.0244    -5.4118 O             1 RES     
    3498 O           42.8946     7.7540    -4.0467 O             1 RES     
    3499 C           42.7740     7.9565    -6.4442 C             1 RES     
    3500 H           43.8507     8.1221    -6.4819 H             1 RES     
    3501 H           42.2629     8.9117    -6.3239 H             1 RES     
    3502 C           42.3116     7.2887    -7.7526 C             1 RES     
    3503 H           41.2349     7.1231    -7.7149 H             1 RES     
    3504 H           42.8227     6.3334    -7.8730 H             1 RES     
    3505 C           42.6484     8.2044    -8.9441 C             1 RES     
    3506 H           43.7251     8.3699    -8.9817 H             1 RES     
    3507 H           42.1374     9.1596    -8.8237 H             1 RES     
    3508 C           42.1861     7.5365   -10.2525 C             1 RES     
    3509 H           41.1094     7.3709   -10.2148 H             1 RES     
    3510 H           42.6971     6.5813   -10.3728 H             1 RES     
    3511 C           42.5229     8.4522   -11.4439 C             1 RES     
    3512 H           43.5996     8.6178   -11.4816 H             1 RES     
    3513 H           42.0119     9.4074   -11.3236 H             1 RES     
    3514 C           42.0605     7.7844   -12.7523 C             1 RES     
    3515 H           40.9839     7.6188   -12.7147 H             1 RES     
    3516 H           42.5716     6.8291   -12.8727 H             1 RES     
    3517 C           42.3974     8.7001   -13.9438 C             1 RES     
    3518 H           43.4741     8.8656   -13.9815 H             1 RES     
    3519 H           41.8863     9.6553   -13.8234 H             1 RES     
    3520 C           41.9350     8.0322   -15.2522 C             1 RES     
    3521 H           40.8583     7.8666   -15.2145 H             1 RES     
    3522 H           42.4461     7.0770   -15.3725 H             1 RES     
    3523 C           42.2718     8.9479   -16.4437 C             1 RES     
    3524 H           43.3485     9.1135   -16.4813 H             1 RES     
    3525 H           41.7608     9.9031   -16.3233 H             1 RES     
    3526 C           41.8095     8.2801   -17.7520 C             1 RES     
    3527 H           40.7328     8.1145   -17.7144 H             1 RES     
    3528 H           42.3205     7.3248   -17.8724 H             1 RES     
    3529 C           42.1463     9.1958   -18.9435 C             1 RES     
    3530 H           43.2230     9.3613   -18.9812 H             1 RES     
    3531 H           41.6352    10.1510   -18.8232 H             1 RES     
    3532 C           41.6839     8.5279   -20.2519 C             1 RES     
    3533 H           40.6072     8.3623   -20.2143 H             1 RES     
    3534 H           42.1950     7.5727   -20.3723 H             1 RES     
    3535 C           42.0207     9.4436   -21.4434 C             1 RES     
    3536 H           43.0974     9.6092   -21.4811 H             1 RES     
    3537 H           41.5097    10.3988   -21.3230 H             1 RES     
    3538 C           41.5584     8.7758   -22.7518 C             1 RES     
    3539 H           40.4817     8.6102   -22.7141 H             1 RES     
    3540 H           42.0694     7.8205   -22.8721 H             1 RES     
    3541 C           41.8952     9.6915   -23.9433 C             1 RES     
    3542 H           42.9719     9.8570   -23.9809 H             1 RES     
    3543 H           41.3842    10.6467   -23.8229 H             1 RES     
    3544 C           41.4328     9.0236   -25.2516 C             1 RES     
    3545 H           40.3562     8.8580   -25.2140 H             1 RES     
    3546 H           41.9439     8.0684   -25.3720 H             1 RES     
    3547 C           41.7544     9.8977   -26.3890 C             1 RES     
    3548 H           40.8001    10.3723   -26.2940 H             1 RES     
    3549 H           41.9824     9.7587   -27.4253 H             1 RES     
    3550 H           42.5055    10.5129   -25.9378 H             1 RES     
    3551 N            0.0000    27.3861     5.0000 N             1 RES     
    3552 C            0.4125    28.7934     5.2164 C             1 RES     
    3553 H            1.3778    29.0195     4.7159 H             1 RES     
    3554 H            0.5591    29.0047     6.2997 H             1 RES     
    3555 H           -0.3565    29.4994     4.8309 H             1 RES     
    3556 C            1.0595    26.4773     5.4991 C             1 RES     
    3557 H            0.7852    25.4122     5.3296 H             1 RES     
    3558 H            1.2255    26.6186     6.5909 H             1 RES     
    3559 H            2.0337    26.6713     5.0024 H             1 RES     
    3560 C           -1.2350    27.1365     5.7821 C             1 RES     
    3561 H           -1.0697    27.3153     6.8687 H             1 RES     
    3562 H           -1.5806    26.0849     5.6630 H             1 RES     
    3563 H           -2.0614    27.8063     5.4530 H             1 RES     
    3564 C           -0.3049    27.1253     3.5602 C             1 RES     
    3565 H           -1.1324    27.7877     3.2192 H             1 RES     
    3566 H           -0.6544    26.0764     3.4280 H             1 RES     
    3567 C            0.8661    27.3339     2.5893 C             1 RES     
    3568 H            1.7065    26.6357     2.7771 H             1 RES     
    3569 H            1.2180    28.3847     2.5636 H             1 RES     
    3570 P            0.1257    28.3347     0.4251 P             1 RES     
    3571 O           -0.1430    28.0205    -1.1206 O             1 RES     
    3572 O            0.6274    27.0054     1.1609 O             1 RES     
    3573 O            1.2784    29.4429     0.4782 O             1 RES     
    3574 O           -1.2712    28.7985     1.0524 O             1 RES     
    3575 C           -0.6059    29.2733    -1.7698 C             1 RES     
    3576 H            0.1627    30.0396    -1.6696 H             1 RES     
    3577 H           -1.5235    29.6134    -1.2898 H             1 RES     
    3578 C           -0.5754    27.5339    -3.5864 C             1 RES     
    3579 H            0.4693    27.3183    -3.3625 H             1 RES     
    3580 H           -1.2170    26.8921    -2.9827 H             1 RES     
    3581 C           -0.8755    29.0094    -3.2629 C             1 RES     
    3582 H           -1.9202    29.2250    -3.4869 H             1 RES     
    3583 C            0.5724    27.6272    -5.4073 C             1 RES     
    3584 O            1.4524    27.9737    -4.6210 O             1 RES     
    3585 O           -0.8327    27.2820    -5.0117 O             1 RES     
    3586 C            0.7459    27.4874    -6.8198 C             1 RES     
    3587 H            0.0593    28.1552    -7.3401 H             1 RES     
    3588 H            0.5349    26.4561    -7.1027 H             1 RES     
    3589 C            2.1947    27.8391    -7.2058 C             1 RES     
    3590 H            2.8814    27.1713    -6.6855 H             1 RES     
    3591 H            2.4057    28.8703    -6.9230 H             1 RES     
    3592 C            2.3752    27.6771    -8.7266 C             1 RES     
    3593 H            1.6886    28.3448    -9.2469 H             1 RES     
    3594 H            2.1642    26.6458    -9.0095 H             1 RES     
    3595 C            3.8240    28.0287    -9.1127 C             1 RES     
    3596 H            4.5106    27.3609    -8.5924 H             1 RES     
    3597 H            4.0350    29.0600    -8.8298 H             1 RES     
    3598 C            4.0045    27.8667   -10.6334 C             1 RES     
    3599 H            3.3179    28.5345   -11.1537 H             1 RES     
    3600 H            3.7935    26.8354   -10.9163 H             1 RES     
    3601 C            5.4533    28.2183   -11.0195 C             1 RES     
    3602 H            6.1399    27.5506   -10.4992 H             1 RES     
    3603 H            5.6643    29.2496   -10.7366 H             1 RES     
    3604 C            5.6338    28.0564   -12.5403 C             1 RES     
    3605 H            4.9472    28.7241   -13.0606 H             1 RES     
    3606 H            5.4228    27.0251   -12.8231 H             1 RES     
    3607 C            7.0826    28.4080   -12.9263 C             1 RES     
    3608 H            7.7692    27.7402   -12.4060 H             1 RES     
    3609 H            7.2936    29.4393   -12.6434 H             1 RES     
    3610 C            7.2631    28.2460   -14.4471 C             1 RES     
    3611 H            6.5764    28.9138   -14.9674 H             1 RES     
    3612 H            7.0521    27.2147   -14.7299 H             1 RES     
    3613 C            8.7119    28.5976   -14.8331 C             1 RES     
    3614 H            9.3985    27.9299   -14.3128 H             1 RES     
    3615 H            8.9229    29.6289   -14.5503 H             1 RES     
    3616 C            8.8924    28.4356   -16.3539 C             1 RES     
    3617 H            8.2057    29.1034   -16.8742 H             1 RES     
    3618 H            8.6814    27.4043   -16.6368 H             1 RES     
    3619 C           10.3412    28.7873   -16.7399 C             1 RES     
    3620 H           11.0278    28.1195   -16.2196 H             1 RES     
    3621 H           10.5522    29.8186   -16.4571 H             1 RES     
    3622 C           10.5217    28.6253   -18.2607 C             1 RES     
    3623 H            9.8350    29.2930   -18.7810 H             1 RES     
    3624 H           10.3107    27.5940   -18.5436 H             1 RES     
    3625 C           11.9704    28.9769   -18.6468 C             1 RES     
    3626 H           12.6571    28.3092   -18.1265 H             1 RES     
    3627 H           12.1814    30.0082   -18.3639 H             1 RES     
    3628 C           12.1510    28.8149   -20.1675 C             1 RES     
    3629 H           11.4643    29.4827   -20.6878 H             1 RES     
    3630 H           11.9400    27.7836   -20.4504 H             1 RES     
    3631 C           13.5997    29.1666   -20.5536 C             1 RES     
    3632 H           14.2864    28.4988   -20.0333 H             1 RES     
    3633 H           13.8107    30.1979   -20.2707 H             1 RES     
    3634 C           13.7720    29.0119   -22.0052 C             1 RES     
    3635 H           14.0579    27.9908   -21.8625 H             1 RES     
    3636 H           14.3914    29.4543   -22.7575 H             1 RES     
    3637 H           12.7481    29.0561   -22.3148 H             1 RES     
    3638 C           -0.6805    29.4046    -5.3317 C             1 RES     
    3639 O           -1.5967    28.5879    -5.4118 O             1 RES     
    3640 O           -0.0427    29.8426    -4.0467 O             1 RES     
    3641 C           -0.0824    30.0749    -6.4442 C             1 RES     
    3642 H            0.9819    29.8422    -6.4819 H             1 RES     
    3643 H           -0.2157    31.1500    -6.3239 H             1 RES     
    3644 C           -0.7540    29.6180    -7.7526 C             1 RES     
    3645 H           -1.8182    29.8507    -7.7149 H             1 RES     
    3646 H           -0.6206    28.5429    -7.8730 H             1 RES     
    3647 C           -0.1104    30.3513    -8.9441 C             1 RES     
    3648 H            0.9538    30.1186    -8.9817 H             1 RES     
    3649 H           -0.2437    31.4264    -8.8237 H             1 RES     
    3650 C           -0.7820    29.8945   -10.2525 C             1 RES     
    3651 H           -1.8462    30.1272   -10.2148 H             1 RES     
    3652 H           -0.6486    28.8194   -10.3728 H             1 RES     
    3653 C           -0.1384    30.6278   -11.4439 C             1 RES     
    3654 H            0.9258    30.3950   -11.4816 H             1 RES     
    3655 H           -0.2717    31.7028   -11.3236 H             1 RES     
    3656 C           -0.8100    30.1709   -12.7523 C             1 RES     
    3657 H           -1.8742    30.4036   -12.7147 H             1 RES     
    3658 H           -0.6766    29.0958   -12.8727 H             1 RES     
    3659 C           -0.1664    30.9042   -13.9438 C             1 RES     
    3660 H            0.8978    30.6715   -13.9815 H             1 RES     
    3661 H           -0.2997    31.9793   -13.8234 H             1 RES     
    3662 C           -0.8380    30.4473   -15.2522 C             1 RES     
    3663 H           -1.9022    30.6800   -15.2145 H             1 RES     
    3664 H           -0.7046    29.3722   -15.3725 H             1 RES     
    3665 C           -0.1944    31.1806   -16.4437 C             1 RES     
    3666 H            0.8698    30.9479   -16.4813 H             1 RES     
    3667 H           -0.3277    32.2557   -16.3233 H             1 RES     
    3668 C           -0.8660    30.7237   -17.7520 C             1 RES     
    3669 H           -1.9302    30.9564   -17.7144 H             1 RES     
    3670 H           -0.7326    29.6486   -17.8724 H             1 RES     
    3671 C           -0.2224    31.4570   -18.9435 C             1 RES     
    3672 H            0.8418    31.2243   -18.9812 H             1 RES     
    3673 H           -0.3557    32.5321   -18.8232 H             1 RES     
    3674 C           -0.8940    31.0001   -20.2519 C             1 RES     
    3675 H           -1.9582    31.2328   -20.2143 H             1 RES     
    3676 H           -0.7607    29.9250   -20.3723 H             1 RES     
    3677 C           -0.2504    31.7334   -21.4434 C             1 RES     
    3678 H            0.8138    31.5007   -21.4811 H             1 RES     
    3679 H           -0.3837    32.8085   -21.3230 H             1 RES     
    3680 C           -0.9220    31.2765   -22.7518 C             1 RES     
    3681 H           -1.9862    31.5092   -22.7141 H             1 RES     
    3682 H           -0.7887    30.2014   -22.8721 H             1 RES     
    3683 C           -0.2784    32.0098   -23.9433 C             1 RES     
    3684 H            0.7858    31.7771   -23.9809 H             1 RES     
    3685 H           -0.4117    33.0849   -23.8229 H             1 RES     
    3686 C           -0.9500    31.5530   -25.2516 C             1 RES     
    3687 H           -2.0142    31.7857   -25.2140 H             1 RES     
    3688 H           -0.8167    30.4779   -25.3720 H             1 RES     
    3689 C           -0.3356    32.2529   -26.3890 C             1 RES     
    3690 H           -1.0554    33.0389   -26.2940 H             1 RES     
    3691 H           -0.1729    32.0412   -27.4253 H             1 RES     
    3692 H            0.5865    32.5568   -25.9378 H             1 RES     
    3693 N           49.2950    38.3406     5.0000 N             1 RES     
    3694 C           49.3989    39.8034     5.2164 C             1 RES     
    3695 H           50.2940    40.2296     4.7159 H             1 RES     
    3696 H           49.4971    40.0410     6.2997 H             1 RES     
    3697 H           48.4973    40.3297     4.8309 H             1 RES     
    3698 C           50.5235    37.6779     5.4991 C             1 RES     
    3699 H           50.4821    36.5788     5.3296 H             1 RES     
    3700 H           50.6557    37.8513     6.5909 H             1 RES     
    3701 H           51.4342    38.0746     5.0024 H             1 RES     
    3702 C           48.1413    37.8341     5.7821 C             1 RES     
    3703 H           48.2648    38.0439     6.8687 H             1 RES     
    3704 H           48.0273    36.7329     5.6630 H             1 RES     
    3705 H           47.1914    38.3127     5.4530 H             1 RES     
    3706 C           49.0525    38.0208     3.5602 C             1 RES     
    3707 H           48.1031    38.4922     3.2192 H             1 RES     
    3708 H           48.9341    36.9216     3.4280 H             1 RES     
    3709 C           50.1524    38.4737     2.5893 C             1 RES     
    3710 H           51.1220    37.9702     2.7771 H             1 RES     
    3711 H           50.2728    39.5753     2.5636 H             1 RES     
    3712 P           49.2161    39.2941     0.4251 P             1 RES     
    3713 O           49.0204    38.9300    -1.1206 O             1 RES     
    3714 O           49.9890    38.1020     1.1609 O             1 RES     
    3715 O           50.1068    40.6222     0.4782 O             1 RES     
    3716 O           47.7525    39.4503     1.0524 O             1 RES     
    3717 C           48.3016    40.0557    -1.7698 C             1 RES     
    3718 H           48.8897    40.9680    -1.6696 H             1 RES     
    3719 H           47.3327    40.1929    -1.2898 H             1 RES     
    3720 C           48.7013    38.3626    -3.5864 C             1 RES     
    3721 H           49.7680    38.3741    -3.3625 H             1 RES     
    3722 H           48.2110    37.5990    -2.9827 H             1 RES     
    3723 C           48.0944    39.7405    -3.2629 C             1 RES     
    3724 H           47.0277    39.7290    -3.4869 H             1 RES     
    3725 C           49.8030    38.6978    -5.4073 C             1 RES     
    3726 O           50.5893    39.2236    -4.6210 O             1 RES     
    3727 O           48.5035    38.0617    -5.0117 O             1 RES     
    3728 C           50.0024    38.5982    -6.8198 C             1 RES     
    3729 H           49.1894    39.1046    -7.3401 H             1 RES     
    3730 H           50.0155    37.5456    -7.1027 H             1 RES     
    3731 C           51.3432    39.2499    -7.2058 C             1 RES     
    3732 H           52.1562    38.7434    -6.6855 H             1 RES     
    3733 H           51.3301    40.3025    -6.9230 H             1 RES     
    3734 C           51.5540    39.1300    -8.7266 C             1 RES     
    3735 H           50.7411    39.6364    -9.2469 H             1 RES     
    3736 H           51.5672    38.0774    -9.0095 H             1 RES     
    3737 C           52.8949    39.7817    -9.1127 C             1 RES     
    3738 H           53.7078    39.2752    -8.5924 H             1 RES     
    3739 H           52.8817    40.8343    -8.8298 H             1 RES     
    3740 C           53.1057    39.6618   -10.6334 C             1 RES     
    3741 H           52.2928    40.1683   -11.1537 H             1 RES     
    3742 H           53.1189    38.6092   -10.9163 H             1 RES     
    3743 C           54.4466    40.3135   -11.0195 C             1 RES     
    3744 H           55.2595    39.8070   -10.4992 H             1 RES     
    3745 H           54.4334    41.3661   -10.7366 H             1 RES     
    3746 C           54.6574    40.1936   -12.5403 C             1 RES     
    3747 H           53.8445    40.7001   -13.0606 H             1 RES     
    3748 H           54.6706    39.1410   -12.8231 H             1 RES     
    3749 C           55.9983    40.8453   -12.9263 C             1 RES     
    3750 H           56.8112    40.3389   -12.4060 H             1 RES     
    3751 H           55.9851    41.8979   -12.6434 H             1 RES     
    3752 C           56.2091    40.7254   -14.4471 C             1 RES     
    3753 H           55.3962    41.2319   -14.9674 H             1 RES     
    3754 H           56.2223    39.6728   -14.7299 H             1 RES     
    3755 C           57.5500    41.3771   -14.8331 C             1 RES     
    3756 H           58.3629    40.8707   -14.3128 H             1 RES     
    3757 H           57.5368    42.4297   -14.5503 H             1 RES     
    3758 C           57.7608    41.2572   -16.3539 C             1 RES     
    3759 H           56.9478    41.7637   -16.8742 H             1 RES     
    3760 H           57.7739    40.2046   -16.6368 H             1 RES     
    3761 C           59.1016    41.9089   -16.7399 C             1 RES     
    3762 H           59.9146    41.4025   -16.2196 H             1 RES     
    3763 H           59.0885    42.9615   -16.4571 H             1 RES     
    3764 C           59.3125    41.7890   -18.2607 C             1 RES     
    3765 H           58.4995    42.2955   -18.7810 H             1 RES     
    3766 H           59.3256    40.7364   -18.5436 H             1 RES     
    3767 C           60.6533    42.4407   -18.6468 C             1 RES     
    3768 H           61.4663    41.9343   -18.1265 H             1 RES     
    3769 H           60.6402    43.4933   -18.3639 H             1 RES     
    3770 C           60.8642    42.3208   -20.1675 C             1 RES     
    3771 H           60.0512    42.8273   -20.6878 H             1 RES     
    3772 H           60.8773    41.2683   -20.4504 H             1 RES     
    3773 C           62.2050    42.9725   -20.5536 C             1 RES     
    3774 H           63.0180    42.4661   -20.0333 H             1 RES     
    3775 H           62.1919    44.0251   -20.2707 H             1 RES     
    3776 C           62.4063    42.8581   -22.0052 C             1 RES     
    3777 H           62.9028    41.9211   -21.8625 H             1 RES     
    3778 H           62.9174    43.4220   -22.7575 H             1 RES     
    3779 H           61.3963    42.6835   -22.3148 H             1 RES     
    3780 C           48.2009    40.1681    -5.3317 C             1 RES     
    3781 O           47.4793    39.1753    -5.4118 O             1 RES     
    3782 O           48.7309    40.7318    -4.0467 O             1 RES     
    3783 C           48.6427    40.9503    -6.4442 C             1 RES     
    3784 H           49.7321    40.9493    -6.4819 H             1 RES     
    3785 H           48.2838    41.9725    -6.3239 H             1 RES     
    3786 C           48.0837    40.3611    -7.7526 C             1 RES     
    3787 H           46.9943    40.3622    -7.7149 H             1 RES     
    3788 H           48.4426    39.3389    -7.8730 H             1 RES     
    3789 C           48.5566    41.2145    -8.9441 C             1 RES     
    3790 H           49.6459    41.2134    -8.9817 H             1 RES     
    3791 H           48.1977    42.2366    -8.8237 H             1 RES     
    3792 C           47.9975    40.6252   -10.2525 C             1 RES     
    3793 H           46.9082    40.6263   -10.2148 H             1 RES     
    3794 H           48.3564    39.6031   -10.3728 H             1 RES     
    3795 C           48.4704    41.4786   -11.4439 C             1 RES     
    3796 H           49.5598    41.4776   -11.4816 H             1 RES     
    3797 H           48.1115    42.5008   -11.3236 H             1 RES     
    3798 C           47.9114    40.8894   -12.7523 C             1 RES     
    3799 H           46.8220    40.8904   -12.7147 H             1 RES     
    3800 H           48.2703    39.8672   -12.8727 H             1 RES     
    3801 C           48.3843    41.7428   -13.9438 C             1 RES     
    3802 H           49.4736    41.7417   -13.9815 H             1 RES     
    3803 H           48.0254    42.7649   -13.8234 H             1 RES     
    3804 C           47.8252    41.1535   -15.2522 C             1 RES     
    3805 H           46.7359    41.1546   -15.2145 H             1 RES     
    3806 H           48.1841    40.1314   -15.3725 H             1 RES     
    3807 C           48.2981    42.0069   -16.4437 C             1 RES     
    3808 H           49.3875    42.0058   -16.4813 H             1 RES     
    3809 H           47.9392    43.0290   -16.3233 H             1 RES     
    3810 C           47.7391    41.4176   -17.7520 C             1 RES     
    3811 H           46.6497    41.4187   -17.7144 H             1 RES     
    3812 H           48.0980    40.3955   -17.8724 H             1 RES     
    3813 C           48.2120    42.2710   -18.9435 C             1 RES     
    3814 H           49.3013    42.2700   -18.9812 H             1 RES     
    3815 H           47.8531    43.2932   -18.8232 H             1 RES     
    3816 C           47.6529    41.6818   -20.2519 C             1 RES     
    3817 H           46.5636    41.6828   -20.2143 H             1 RES     
    3818 H           48.0118    40.6596   -20.3723 H             1 RES     
    3819 C           48.1258    42.5352   -21.4434 C             1 RES     
    3820 H           49.2152    42.5341   -21.4811 H             1 RES     
    3821 H           47.7669    43.5573   -21.3230 H             1 RES     
    3822 C           47.5668    41.9459   -22.7518 C             1 RES     
    3823 H           46.4774    41.9470   -22.7141 H             1 RES     
    3824 H           47.9257    40.9238   -22.8721 H             1 RES     
    3825 C           48.0397    42.7993   -23.9433 C             1 RES     
    3826 H           49.1290    42.7982   -23.9809 H             1 RES     
    3827 H           47.6808    43.8215   -23.8229 H             1 RES     
    3828 C           47.4806    42.2101   -25.2516 C             1 RES     
    3829 H           46.3913    42.2111   -25.2140 H             1 RES     
    3830 H           47.8395    41.1879   -25.3720 H             1 RES     
    3831 C           47.9320    43.0247   -26.3890 C             1 RES     
    3832 H           47.0616    43.6396   -26.2940 H             1 RES     
    3833 H           48.1361    42.8524   -27.4253 H             1 RES     
    3834 H           48.7685    43.5177   -25.9378 H             1 RES     
    3835 N            0.0000    21.9089     5.0000 N             1 RES     
    3836 C            0.1795    23.3643     5.2164 C             1 RES     
    3837 H            1.0955    23.7436     4.7159 H             1 RES     
    3838 H            0.2899    23.5966     6.2997 H             1 RES     
    3839 H           -0.6936    23.9367     4.8309 H             1 RES     
    3840 C            1.1925    21.1834     5.4991 C             1 RES     
    3841 H            1.0941    20.0880     5.3296 H             1 RES     
    3842 H            1.3335    21.3497     6.5909 H             1 RES     
    3843 H            2.1225    21.5324     5.0024 H             1 RES     
    3844 C           -1.1784    21.4629     5.7821 C             1 RES     
    3845 H           -1.0442    21.6660     6.8687 H             1 RES     
    3846 H           -1.3494    20.3691     5.6630 H             1 RES     
    3847 H           -2.1023    21.9901     5.4530 H             1 RES     
    3848 C           -0.2587    21.6021     3.5602 C             1 RES     
    3849 H           -1.1824    22.1220     3.2192 H             1 RES     
    3850 H           -0.4339    20.5105     3.4280 H             1 RES     
    3851 C            0.8631    21.9974     2.5893 C             1 RES     
    3852 H            1.8054    21.4444     2.7771 H             1 RES     
    3853 H            1.0405    23.0913     2.5636 H             1 RES     
    3854 P           -0.0294    22.8653     0.4251 P             1 RES     
    3855 O           -0.2438    22.5118    -1.1206 O             1 RES     
    3856 O            0.6807    21.6347     1.1609 O             1 RES     
    3857 O            0.9289    24.1454     0.4782 O             1 RES     
    3858 O           -1.4829    23.0970     1.0524 O             1 RES     
    3859 C           -0.9032    23.6732    -1.7698 C             1 RES     
    3860 H           -0.2686    24.5538    -1.6696 H             1 RES     
    3861 H           -1.8637    23.8604    -1.2898 H             1 RES     
    3862 C           -0.5917    21.9617    -3.5864 C             1 RES     
    3863 H            0.4741    21.9179    -3.3625 H             1 RES     
    3864 H           -1.1210    21.2245    -2.9827 H             1 RES     
    3865 C           -1.1265    23.3692    -3.2629 C             1 RES     
    3866 H           -2.1923    23.4130    -3.4869 H             1 RES     
    3867 C            0.5258    22.2393    -5.4073 C             1 RES     
    3868 O            1.3383    22.7236    -4.6210 O             1 RES     
    3869 O           -0.8049    21.6714    -5.0117 O             1 RES     
    3870 C            0.7197    22.1295    -6.8198 C             1 RES     
    3871 H           -0.0659    22.6774    -7.3401 H             1 RES     
    3872 H            0.6783    21.0777    -7.1027 H             1 RES     
    3873 C            2.0926    22.7108    -7.2058 C             1 RES     
    3874 H            2.8782    22.1629    -6.6855 H             1 RES     
    3875 H            2.1340    23.7627    -6.9230 H             1 RES     
    3876 C            2.2969    22.5802    -8.7266 C             1 RES     
    3877 H            1.5113    23.1281    -9.2469 H             1 RES     
    3878 H            2.2555    21.5283    -9.0095 H             1 RES     
    3879 C            3.6697    23.1615    -9.1127 C             1 RES     
    3880 H            4.4553    22.6136    -8.5924 H             1 RES     
    3881 H            3.7111    24.2133    -8.8298 H             1 RES     
    3882 C            3.8741    23.0308   -10.6334 C             1 RES     
    3883 H            3.0884    23.5788   -11.1537 H             1 RES     
    3884 H            3.8326    21.9790   -10.9163 H             1 RES     
    3885 C            5.2469    23.6122   -11.0195 C             1 RES     
    3886 H            6.0325    23.0643   -10.4992 H             1 RES     
    3887 H            5.2883    24.6640   -10.7366 H             1 RES     
    3888 C            5.4512    23.4815   -12.5403 C             1 RES     
    3889 H            4.6656    24.0294   -13.0606 H             1 RES     
    3890 H            5.4098    22.4297   -12.8231 H             1 RES     
    3891 C            6.8240    24.0628   -12.9263 C             1 RES     
    3892 H            7.6097    23.5149   -12.4060 H             1 RES     
    3893 H            6.8655    25.1147   -12.6434 H             1 RES     
    3894 C            7.0284    23.9322   -14.4471 C             1 RES     
    3895 H            6.2428    24.4801   -14.9674 H             1 RES     
    3896 H            6.9870    22.8803   -14.7299 H             1 RES     
    3897 C            8.4012    24.5135   -14.8331 C             1 RES     
    3898 H            9.1868    23.9656   -14.3128 H             1 RES     
    3899 H            8.4426    25.5654   -14.5503 H             1 RES     
    3900 C            8.6056    24.3829   -16.3539 C             1 RES     
    3901 H            7.8199    24.9308   -16.8742 H             1 RES     
    3902 H            8.5641    23.3310   -16.6368 H             1 RES     
    3903 C            9.9784    24.9642   -16.7399 C             1 RES     
    3904 H           10.7640    24.4163   -16.2196 H             1 RES     
    3905 H           10.0198    26.0160   -16.4571 H             1 RES     
    3906 C           10.1827    24.8335   -18.2607 C             1 RES     
    3907 H            9.3971    25.3814   -18.7810 H             1 RES     
    3908 H           10.1413    23.7817   -18.5436 H             1 RES     
    3909 C           11.5555    25.4149   -18.6468 C             1 RES     
    3910 H           12.3411    24.8669   -18.1265 H             1 RES     
    3911 H           11.5970    26.4667   -18.3639 H             1 RES     
    3912 C           11.7599    25.2842   -20.1675 C             1 RES     
    3913 H           10.9743    25.8321   -20.6878 H             1 RES     
    3914 H           11.7185    24.2324   -20.4504 H             1 RES     
    3915 C           13.1327    25.8655   -20.5536 C             1 RES     
    3916 H           13.9183    25.3176   -20.0333 H             1 RES     
    3917 H           13.1741    26.9174   -20.2707 H             1 RES     
    3918 C           13.3278    25.7408   -22.0052 C             1 RES     
    3919 H           13.7750    24.7793   -21.8625 H             1 RES     
    3920 H           13.8674    26.2775   -22.7575 H             1 RES     
    3921 H           12.3101    25.6188   -22.3148 H             1 RES     
    3922 C           -0.9980    23.7907    -5.3317 C             1 RES     
    3923 O           -1.7701    22.8366    -5.4118 O             1 RES     
    3924 O           -0.4394    24.3261    -4.0467 O             1 RES     
    3925 C           -0.5162    24.5490    -6.4442 C             1 RES     
    3926 H            0.5717    24.4915    -6.4819 H             1 RES     
    3927 H           -0.8216    25.5884    -6.3239 H             1 RES     
    3928 C           -1.1050    23.9895    -7.7526 C             1 RES     
    3929 H           -2.1928    24.0470    -7.7149 H             1 RES     
    3930 H           -0.7996    22.9501    -7.8730 H             1 RES     
    3931 C           -0.5885    24.8172    -8.9441 C             1 RES     
    3932 H            0.4993    24.7597    -8.9817 H             1 RES     
    3933 H           -0.8940    25.8566    -8.8237 H             1 RES     
    3934 C           -1.1774    24.2577   -10.2525 C             1 RES     
    3935 H           -2.2652    24.3152   -10.2148 H             1 RES     
    3936 H           -0.8719    23.2184   -10.3728 H             1 RES     
    3937 C           -0.6608    25.0855   -11.4439 C             1 RES     
    3938 H            0.4270    25.0279   -11.4816 H             1 RES     
    3939 H           -0.9663    26.1248   -11.3236 H             1 RES     
    3940 C           -1.2497    24.5260   -12.7523 C             1 RES     
    3941 H           -2.3375    24.5835   -12.7147 H             1 RES     
    3942 H           -0.9442    23.4866   -12.8727 H             1 RES     
    3943 C           -0.7332    25.3537   -13.9438 C             1 RES     
    3944 H            0.3546    25.2962   -13.9815 H             1 RES     
    3945 H           -1.0386    26.3931   -13.8234 H             1 RES     
    3946 C           -1.3220    24.7942   -15.2522 C             1 RES     
    3947 H           -2.4099    24.8517   -15.2145 H             1 RES     
    3948 H           -1.0166    23.7548   -15.3725 H             1 RES     
    3949 C           -0.8055    25.6220   -16.4437 C             1 RES     
    3950 H            0.2823    25.5644   -16.4813 H             1 RES     
    3951 H           -1.1110    26.6613   -16.3233 H             1 RES     
    3952 C           -1.3944    25.0625   -17.7520 C             1 RES     
    3953 H           -2.4822    25.1200   -17.7144 H             1 RES     
    3954 H           -1.0889    24.0231   -17.8724 H             1 RES     
    3955 C           -0.8779    25.8902   -18.9435 C             1 RES     
    3956 H            0.2100    25.8327   -18.9812 H             1 RES     
    3957 H           -1.1833    26.9296   -18.8232 H             1 RES     
    3958 C           -1.4667    25.3307   -20.2519 C             1 RES     
    3959 H           -2.5546    25.3882   -20.2143 H             1 RES     
    3960 H           -1.1613    24.2913   -20.3723 H             1 RES     
    3961 C           -0.9502    26.1585   -21.4434 C             1 RES     
    3962 H            0.1376    26.1009   -21.4811 H             1 RES     
    3963 H           -1.2557    27.1978   -21.3230 H             1 RES     
    3964 C           -1.5391    25.5990   -22.7518 C             1 RES     
    3965 H           -2.6269    25.6565   -22.7141 H             1 RES     
    3966 H           -1.2336    24.5596   -22.8721 H             1 RES     
    3967 C           -1.0226    26.4267   -23.9433 C             1 RES     
    3968 H            0.0653    26.3692   -23.9809 H             1 RES     
    3969 H           -1.3280    27.4661   -23.8229 H             1 RES     
    3970 C           -1.6114    25.8672   -25.2516 C             1 RES     
    3971 H           -2.6993    25.9247   -25.2140 H             1 RES     
    3972 H           -1.3060    24.8278   -25.3720 H             1 RES     
    3973 C           -1.1184    26.6573   -26.3890 C             1 RES     
    3974 H           -1.9558    27.3166   -26.2940 H             1 RES     
    3975 H           -0.9235    26.4747   -27.4253 H             1 RES     
    3976 H           -0.2575    27.1064   -25.9378 H             1 RES     
    3977 N           49.2950    43.8178     5.0000 N             1 RES     
    3978 C           49.1800    45.2798     5.2164 C             1 RES     
    3979 H           50.0017    45.8344     4.7159 H             1 RES     
    3980 H           49.2418    45.5294     6.2997 H             1 RES     
    3981 H           48.2102    45.6661     4.8309 H             1 RES     
    3982 C           50.6085    43.3453     5.4991 C             1 RES     
    3983 H           50.7310    42.2523     5.3296 H             1 RES     
    3984 H           50.7134    43.5364     6.5909 H             1 RES     
    3985 H           51.4500    43.8731     5.0024 H             1 RES     
    3986 C           48.2296    43.1452     5.7821 C             1 RES     
    3987 H           48.3205    43.3711     6.8687 H             1 RES     
    3988 H           48.2807    42.0394     5.6630 H             1 RES     
    3989 H           47.2190    43.4772     5.4530 H             1 RES     
    3990 C           49.1028    43.4655     3.5602 C             1 RES     
    3991 H           48.0938    43.7903     3.2192 H             1 RES     
    3992 H           49.1493    42.3609     3.4280 H             1 RES     
    3993 C           50.1231    44.0770     2.5893 C             1 RES     
    3994 H           51.1568    43.7235     2.7771 H             1 RES     
    3995 H           50.0782    45.1843     2.5636 H             1 RES     
    3996 P           49.0751    44.7490     0.4251 P             1 RES     
    3997 O           48.9357    44.3598    -1.1206 O             1 RES     
    3998 O           50.0168    43.6852     1.1609 O             1 RES     
    3999 O           49.7582    46.1949     0.4782 O             1 RES     
    4000 O           47.6046    44.6856     1.0524 O             1 RES     
    4001 C           48.0574    45.3660    -1.7698 C             1 RES     
    4002 H           48.5032    46.3556    -1.6696 H             1 RES     
    4003 H           47.0789    45.3574    -1.2898 H             1 RES     
    4004 C           48.7047    43.7513    -3.5864 C             1 RES     
    4005 H           49.7578    43.9214    -3.3625 H             1 RES     
    4006 H           48.3334    42.9232    -2.9827 H             1 RES     
    4007 C           47.8994    45.0234    -3.2629 C             1 RES     
    4008 H           46.8463    44.8533    -3.4869 H             1 RES     
    4009 C           49.7442    44.2467    -5.4073 C             1 RES     
    4010 O           50.4434    44.8836    -4.6210 O             1 RES     
    4011 O           48.5538    43.4243    -5.0117 O             1 RES     
    4012 C           49.9561    44.1778    -6.8198 C             1 RES     
    4013 H           49.0769    44.5576    -7.3401 H             1 RES     
    4014 H           50.1258    43.1389    -7.1027 H             1 RES     
    4015 C           51.1851    45.0218    -7.2058 C             1 RES     
    4016 H           52.0643    44.6420    -6.6855 H             1 RES     
    4017 H           51.0154    46.0607    -6.9230 H             1 RES     
    4018 C           51.4114    44.9346    -8.7266 C             1 RES     
    4019 H           50.5321    45.3144    -9.2469 H             1 RES     
    4020 H           51.5811    43.8957    -9.0095 H             1 RES     
    4021 C           52.6403    45.7786    -9.1127 C             1 RES     
    4022 H           53.5196    45.3988    -8.5924 H             1 RES     
    4023 H           52.4707    46.8175    -8.8298 H             1 RES     
    4024 C           52.8667    45.6914   -10.6334 C             1 RES     
    4025 H           51.9874    46.0713   -11.1537 H             1 RES     
    4026 H           53.0363    44.6525   -10.9163 H             1 RES     
    4027 C           54.0956    46.5354   -11.0195 C             1 RES     
    4028 H           54.9749    46.1556   -10.4992 H             1 RES     
    4029 H           53.9260    47.5743   -10.7366 H             1 RES     
    4030 C           54.3219    46.4482   -12.5403 C             1 RES     
    4031 H           53.4427    46.8281   -13.0606 H             1 RES     
    4032 H           54.4916    45.4093   -12.8231 H             1 RES     
    4033 C           55.5509    47.2922   -12.9263 C             1 RES     
    4034 H           56.4301    46.9124   -12.4060 H             1 RES     
    4035 H           55.3812    48.3311   -12.6434 H             1 RES     
    4036 C           55.7772    47.2050   -14.4471 C             1 RES     
    4037 H           54.8979    47.5849   -14.9674 H             1 RES     
    4038 H           55.9468    46.1661   -14.7299 H             1 RES     
    4039 C           57.0061    48.0490   -14.8331 C             1 RES     
    4040 H           57.8854    47.6692   -14.3128 H             1 RES     
    4041 H           56.8365    49.0879   -14.5503 H             1 RES     
    4042 C           57.2325    47.9618   -16.3539 C             1 RES     
    4043 H           56.3532    48.3417   -16.8742 H             1 RES     
    4044 H           57.4021    46.9229   -16.6368 H             1 RES     
    4045 C           58.4614    48.8058   -16.7399 C             1 RES     
    4046 H           59.3407    48.4260   -16.2196 H             1 RES     
    4047 H           58.2917    49.8447   -16.4571 H             1 RES     
    4048 C           58.6877    48.7187   -18.2607 C             1 RES     
    4049 H           57.8085    49.0985   -18.7810 H             1 RES     
    4050 H           58.8574    47.6798   -18.5436 H             1 RES     
    4051 C           59.9167    49.5626   -18.6468 C             1 RES     
    4052 H           60.7959    49.1828   -18.1265 H             1 RES     
    4053 H           59.7470    50.6015   -18.3639 H             1 RES     
    4054 C           60.1430    49.4755   -20.1675 C             1 RES     
    4055 H           59.2637    49.8553   -20.6878 H             1 RES     
    4056 H           60.3126    48.4366   -20.4504 H             1 RES     
    4057 C           61.3719    50.3194   -20.5536 C             1 RES     
    4058 H           62.2512    49.9396   -20.0333 H             1 RES     
    4059 H           61.2023    51.3583   -20.2707 H             1 RES     
    4060 C           61.5880    50.2362   -22.0052 C             1 RES     
    4061 H           62.2184    49.3835   -21.8625 H             1 RES     
    4062 H           62.0095    50.8699   -22.7575 H             1 RES     
    4063 H           60.6153    49.9133   -22.3148 H             1 RES     
    4064 C           47.9411    45.4622    -5.3317 C             1 RES     
    4065 O           47.3753    44.3730    -5.4118 O             1 RES     
    4066 O           48.3814    46.0984    -4.0467 O             1 RES     
    4067 C           48.2616    46.3014    -6.4442 C             1 RES     
    4068 H           49.3390    46.4625    -6.4819 H             1 RES     
    4069 H           47.7546    47.2588    -6.3239 H             1 RES     
    4070 C           47.7965    45.6355    -7.7526 C             1 RES     
    4071 H           46.7191    45.4745    -7.7149 H             1 RES     
    4072 H           48.3035    44.6782    -7.8730 H             1 RES     
    4073 C           48.1371    46.5498    -8.9441 C             1 RES     
    4074 H           49.2145    46.7109    -8.9817 H             1 RES     
    4075 H           47.6301    47.5072    -8.8237 H             1 RES     
    4076 C           47.6720    45.8839   -10.2525 C             1 RES     
    4077 H           46.5946    45.7228   -10.2148 H             1 RES     
    4078 H           48.1790    44.9266   -10.3728 H             1 RES     
    4079 C           48.0126    46.7982   -11.4439 C             1 RES     
    4080 H           49.0900    46.9593   -11.4816 H             1 RES     
    4081 H           47.5056    47.7555   -11.3236 H             1 RES     
    4082 C           47.5475    46.1323   -12.7523 C             1 RES     
    4083 H           46.4701    45.9712   -12.7147 H             1 RES     
    4084 H           48.0545    45.1749   -12.8727 H             1 RES     
    4085 C           47.8881    47.0466   -13.9438 C             1 RES     
    4086 H           48.9655    47.2076   -13.9815 H             1 RES     
    4087 H           47.3811    48.0039   -13.8234 H             1 RES     
    4088 C           47.4230    46.3807   -15.2522 C             1 RES     
    4089 H           46.3456    46.2196   -15.2145 H             1 RES     
    4090 H           47.9300    45.4233   -15.3725 H             1 RES     
    4091 C           47.7636    47.2949   -16.4437 C             1 RES     
    4092 H           48.8410    47.4560   -16.4813 H             1 RES     
    4093 H           47.2566    48.2523   -16.3233 H             1 RES     
    4094 C           47.2985    46.6290   -17.7520 C             1 RES     
    4095 H           46.2211    46.4680   -17.7144 H             1 RES     
    4096 H           47.8055    45.6717   -17.8724 H             1 RES     
    4097 C           47.6391    47.5433   -18.9435 C             1 RES     
    4098 H           48.7165    47.7044   -18.9812 H             1 RES     
    4099 H           47.1321    48.5007   -18.8232 H             1 RES     
    4100 C           47.1740    46.8774   -20.2519 C             1 RES     
    4101 H           46.0966    46.7163   -20.2143 H             1 RES     
    4102 H           47.6810    45.9201   -20.3723 H             1 RES     
    4103 C           47.5146    47.7917   -21.4434 C             1 RES     
    4104 H           48.5920    47.9528   -21.4811 H             1 RES     
    4105 H           47.0076    48.7490   -21.3230 H             1 RES     
    4106 C           47.0495    47.1258   -22.7518 C             1 RES     
    4107 H           45.9721    46.9647   -22.7141 H             1 RES     
    4108 H           47.5565    46.1684   -22.8721 H             1 RES     
    4109 C           47.3901    48.0401   -23.9433 C             1 RES     
    4110 H           48.4675    48.2011   -23.9809 H             1 RES     
    4111 H           46.8831    48.9974   -23.8229 H             1 RES     
    4112 C           46.9250    47.3742   -25.2516 C             1 RES     
    4113 H           45.8476    47.2131   -25.2140 H             1 RES     
    4114 H           47.4320    46.4168   -25.3720 H             1 RES     
    4115 C           47.2501    48.2469   -26.3890 C             1 RES     
    4116 H           46.2979    48.7255   -26.2940 H             1 RES     
    4117 H           47.4776    48.1069   -27.4253 H             1 RES     
    4118 H           48.0039    48.8589   -25.9378 H             1 RES     
    4119 N           21.9089     0.0000     5.0000 N             1 RES     
    4120 C           21.6687     1.4467     5.2164 C             1 RES     
    4121 H           22.4397     2.0699     4.7159 H             1 RES     
    4122 H           21.7087     1.7007     6.2997 H             1 RES     
    4123 H           20.6692     1.7482     4.8309 H             1 RES     
    4124 C           23.2581    -0.3578     5.4991 C             1 RES     
    4125 H           23.4741    -1.4363     5.3296 H             1 RES     
    4126 H           23.3462    -0.1584     6.5909 H             1 RES     
    4127 H           24.0511     0.2403     5.0024 H             1 RES     
    4128 C           20.9052    -0.7617     5.7821 C             1 RES     
    4129 H           20.9763    -0.5288     6.8687 H             1 RES     
    4130 H           21.0511    -1.8590     5.6630 H             1 RES     
    4131 H           19.8698    -0.5178     5.4530 H             1 RES     
    4132 C           21.7477    -0.3675     3.5602 C             1 RES     
    4133 H           20.7145    -0.1306     3.2192 H             1 RES     
    4134 H           21.8890    -1.4640     3.4280 H             1 RES     
    4135 C           22.7116     0.3294     2.5893 C             1 RES     
    4136 H           23.7719     0.0660     2.7771 H             1 RES     
    4137 H           22.5717     1.4288     2.5636 H             1 RES     
    4138 P           21.6097     0.9088     0.4251 P             1 RES     
    4139 O           21.5043     0.5091    -1.1206 O             1 RES     
    4140 O           22.6394    -0.0701     1.1609 O             1 RES     
    4141 O           22.1661     2.4081     0.4782 O             1 RES     
    4142 O           20.1501     0.7193     1.0524 O             1 RES     
    4143 C           20.5428     1.4361    -1.7698 C             1 RES     
    4144 H           20.9019     2.4604    -1.6696 H             1 RES     
    4145 H           19.5686     1.3435    -1.2898 H             1 RES     
    4146 C           21.3264    -0.1170    -3.5864 C             1 RES     
    4147 H           22.3610     0.1429    -3.3625 H             1 RES     
    4148 H           21.0277    -0.9740    -2.9827 H             1 RES     
    4149 C           20.4148     1.0812    -3.2629 C             1 RES     
    4150 H           19.3803     0.8212    -3.4869 H             1 RES     
    4151 C           22.3196     0.4659    -5.4073 C             1 RES     
    4152 O           22.9615     1.1605    -4.6210 O             1 RES     
    4153 O           21.2043    -0.4558    -5.0117 O             1 RES     
    4154 C           22.5366     0.4155    -6.8198 C             1 RES     
    4155 H           21.6280     0.7184    -7.3401 H             1 RES     
    4156 H           22.7949    -0.6050    -7.1027 H             1 RES     
    4157 C           23.6885     1.3620    -7.2058 C             1 RES     
    4158 H           24.5971     1.0591    -6.6855 H             1 RES     
    4159 H           23.4302     2.3824    -6.9230 H             1 RES     
    4160 C           23.9215     1.2946    -8.7266 C             1 RES     
    4161 H           23.0128     1.5974    -9.2469 H             1 RES     
    4162 H           24.1798     0.2741    -9.0095 H             1 RES     
    4163 C           25.0733     2.2410    -9.1127 C             1 RES     
    4164 H           25.9820     1.9382    -8.5924 H             1 RES     
    4165 H           24.8150     3.2615    -8.8298 H             1 RES     
    4166 C           25.3063     2.1736   -10.6334 C             1 RES     
    4167 H           24.3976     2.4765   -11.1537 H             1 RES     
    4168 H           25.5646     1.1532   -10.9163 H             1 RES     
    4169 C           26.4582     3.1201   -11.0195 C             1 RES     
    4170 H           27.3668     2.8173   -10.4992 H             1 RES     
    4171 H           26.1999     4.1406   -10.7366 H             1 RES     
    4172 C           26.6911     3.0527   -12.5403 C             1 RES     
    4173 H           25.7825     3.3556   -13.0606 H             1 RES     
    4174 H           26.9495     2.0322   -12.8231 H             1 RES     
    4175 C           27.8430     3.9992   -12.9263 C             1 RES     
    4176 H           28.7517     3.6963   -12.4060 H             1 RES     
    4177 H           27.5847     5.0197   -12.6434 H             1 RES     
    4178 C           28.0760     3.9318   -14.4471 C             1 RES     
    4179 H           27.1673     4.2346   -14.9674 H             1 RES     
    4180 H           28.3343     2.9113   -14.7299 H             1 RES     
    4181 C           29.2278     4.8783   -14.8331 C             1 RES     
    4182 H           30.1365     4.5754   -14.3128 H             1 RES     
    4183 H           28.9695     5.8987   -14.5503 H             1 RES     
    4184 C           29.4608     4.8109   -16.3539 C             1 RES     
    4185 H           28.5522     5.1137   -16.8742 H             1 RES     
    4186 H           29.7191     3.7904   -16.6368 H             1 RES     
    4187 C           30.6127     5.7573   -16.7399 C             1 RES     
    4188 H           31.5213     5.4545   -16.2196 H             1 RES     
    4189 H           30.3544     6.7778   -16.4571 H             1 RES     
    4190 C           30.8457     5.6899   -18.2607 C             1 RES     
    4191 H           29.9370     5.9928   -18.7810 H             1 RES     
    4192 H           31.1040     4.6695   -18.5436 H             1 RES     
    4193 C           31.9975     6.6364   -18.6468 C             1 RES     
    4194 H           32.9062     6.3336   -18.1265 H             1 RES     
    4195 H           31.7392     7.6569   -18.3639 H             1 RES     
    4196 C           32.2305     6.5690   -20.1675 C             1 RES     
    4197 H           31.3218     6.8719   -20.6878 H             1 RES     
    4198 H           32.4888     5.5485   -20.4504 H             1 RES     
    4199 C           33.3823     7.5155   -20.5536 C             1 RES     
    4200 H           34.2910     7.2126   -20.0333 H             1 RES     
    4201 H           33.1240     8.5360   -20.2707 H             1 RES     
    4202 C           33.6047     7.4512   -22.0052 C             1 RES     
    4203 H           34.3061     6.6558   -21.8625 H             1 RES     
    4204 H           33.9702     8.1187   -22.7575 H             1 RES     
    4205 H           32.6634     7.0458   -22.3148 H             1 RES     
    4206 C           20.4186     1.5219    -5.3317 C             1 RES     
    4207 O           19.9485     0.3882    -5.4118 O             1 RES     
    4208 O           20.8026     2.1937    -4.0467 O             1 RES     
    4209 C           20.6659     2.3856    -6.4442 C             1 RES     
    4210 H           21.7254     2.6387    -6.4819 H             1 RES     
    4211 H           20.0784     3.2959    -6.3239 H             1 RES     
    4212 C           20.2597     1.6822    -7.7526 C             1 RES     
    4213 H           19.2001     1.4292    -7.7149 H             1 RES     
    4214 H           20.8471     0.7720    -7.8730 H             1 RES     
    4215 C           20.5205     2.6224    -8.9441 C             1 RES     
    4216 H           21.5800     2.8755    -8.9817 H             1 RES     
    4217 H           19.9330     3.5326    -8.8237 H             1 RES     
    4218 C           20.1143     1.9190   -10.2525 C             1 RES     
    4219 H           19.0547     1.6659   -10.2148 H             1 RES     
    4220 H           20.7017     1.0087   -10.3728 H             1 RES     
    4221 C           20.3751     2.8591   -11.4439 C             1 RES     
    4222 H           21.4346     3.1122   -11.4816 H             1 RES     
    4223 H           19.7877     3.7694   -11.3236 H             1 RES     
    4224 C           19.9689     2.1557   -12.7523 C             1 RES     
    4225 H           18.9093     1.9027   -12.7147 H             1 RES     
    4226 H           20.5563     1.2455   -12.8727 H             1 RES     
    4227 C           20.2297     3.0959   -13.9438 C             1 RES     
    4228 H           21.2893     3.3490   -13.9815 H             1 RES     
    4229 H           19.6423     4.0061   -13.8234 H             1 RES     
    4230 C           19.8235     2.3925   -15.2522 C             1 RES     
    4231 H           18.7640     2.1394   -15.2145 H             1 RES     
    4232 H           20.4109     1.4823   -15.3725 H             1 RES     
    4233 C           20.0843     3.3327   -16.4437 C             1 RES     
    4234 H           21.1439     3.5857   -16.4813 H             1 RES     
    4235 H           19.4969     4.2429   -16.3233 H             1 RES     
    4236 C           19.6781     2.6292   -17.7520 C             1 RES     
    4237 H           18.6186     2.3762   -17.7144 H             1 RES     
    4238 H           20.2656     1.7190   -17.8724 H             1 RES     
    4239 C           19.9389     3.5694   -18.9435 C             1 RES     
    4240 H           20.9985     3.8225   -18.9812 H             1 RES     
    4241 H           19.3515     4.4796   -18.8232 H             1 RES     
    4242 C           19.5327     2.8660   -20.2519 C             1 RES     
    4243 H           18.4732     2.6129   -20.2143 H             1 RES     
    4244 H           20.1202     1.9558   -20.3723 H             1 RES     
    4245 C           19.7936     3.8062   -21.4434 C             1 RES     
    4246 H           20.8531     4.0592   -21.4811 H             1 RES     
    4247 H           19.2061     4.7164   -21.3230 H             1 RES     
    4248 C           19.3874     3.1028   -22.7518 C             1 RES     
    4249 H           18.3278     2.8497   -22.7141 H             1 RES     
    4250 H           19.9748     2.1925   -22.8721 H             1 RES     
    4251 C           19.6482     4.0429   -23.9433 C             1 RES     
    4252 H           20.7077     4.2960   -23.9809 H             1 RES     
    4253 H           19.0607     4.9532   -23.8229 H             1 RES     
    4254 C           19.2420     3.3395   -25.2516 C             1 RES     
    4255 H           18.1824     3.0864   -25.2140 H             1 RES     
    4256 H           19.8294     2.4293   -25.3720 H             1 RES     
    4257 C           19.4909     4.2369   -26.3890 C             1 RES     
    4258 H           18.5010     4.6319   -26.2940 H             1 RES     
    4259 H           19.7296     4.1170   -27.4253 H             1 RES     
    4260 H           20.1893     4.9115   -25.9378 H             1 RES     
    4261 N           27.3861     0.0000     5.0000 N             1 RES     
    4262 C           27.5576     1.4564     5.2164 C             1 RES     
    4263 H           28.4714     1.8407     4.7159 H             1 RES     
    4264 H           27.6667     1.6893     6.2997 H             1 RES     
    4265 H           26.6813     2.0239     4.8309 H             1 RES     
    4266 C           28.5826    -0.7188     5.4991 C             1 RES     
    4267 H           28.4903    -1.8149     5.3296 H             1 RES     
    4268 H           28.7227    -0.5518     6.5909 H             1 RES     
    4269 H           29.5107    -0.3648     5.0024 H             1 RES     
    4270 C           26.2102    -0.4526     5.7821 C             1 RES     
    4271 H           26.3433    -0.2487     6.8687 H             1 RES     
    4272 H           26.0453    -1.5472     5.6630 H             1 RES     
    4273 H           25.2835     0.0695     5.4530 H             1 RES     
    4274 C           27.1291    -0.3082     3.5602 C             1 RES     
    4275 H           26.2025     0.2066     3.2192 H             1 RES     
    4276 H           26.9599    -1.4008     3.4280 H             1 RES     
    4277 C           28.2488     0.0933     2.5893 C             1 RES     
    4278 H           29.1940    -0.4545     2.7771 H             1 RES     
    4279 H           28.4201     1.1882     2.5636 H             1 RES     
    4280 P           27.3514     0.9562     0.4251 P             1 RES     
    4281 O           27.1390     0.6015    -1.1206 O             1 RES     
    4282 O           28.0683    -0.2704     1.1609 O             1 RES     
    4283 O           28.3027     2.2416     0.4782 O             1 RES     
    4284 O           25.8967     1.1799     1.0524 O             1 RES     
    4285 C           26.4732     1.7593    -1.7698 C             1 RES     
    4286 H           27.1029     2.6433    -1.6696 H             1 RES     
    4287 H           25.5116     1.9412    -1.2898 H             1 RES     
    4288 C           26.7941     0.0495    -3.5864 C             1 RES     
    4289 H           27.8602     0.0116    -3.3625 H             1 RES     
    4290 H           26.2689    -0.6906    -2.9827 H             1 RES     
    4291 C           26.2516     1.4540    -3.2629 C             1 RES     
    4292 H           25.1855     1.4919    -3.4869 H             1 RES     
    4293 C           27.9101     0.3333    -5.4073 C             1 RES     
    4294 O           28.7198     0.8221    -4.6210 O             1 RES     
    4295 O           26.5825    -0.2419    -5.0117 O             1 RES     
    4296 C           28.1046     0.2246    -6.8198 C             1 RES     
    4297 H           27.3160     0.7681    -7.3401 H             1 RES     
    4298 H           28.0690    -0.8275    -7.1027 H             1 RES     
    4299 C           29.4742     0.8135    -7.2058 C             1 RES     
    4300 H           30.2628     0.2700    -6.6855 H             1 RES     
    4301 H           29.5098     1.8656    -6.9230 H             1 RES     
    4302 C           29.6793     0.6840    -8.7266 C             1 RES     
    4303 H           28.8906     1.2275    -9.2469 H             1 RES     
    4304 H           29.6437    -0.3681    -9.0095 H             1 RES     
    4305 C           31.0488     1.2729    -9.1127 C             1 RES     
    4306 H           31.8375     0.7294    -8.5924 H             1 RES     
    4307 H           31.0844     2.3250    -8.8298 H             1 RES     
    4308 C           31.2539     1.1434   -10.6334 C             1 RES     
    4309 H           30.4653     1.6869   -11.1537 H             1 RES     
    4310 H           31.2183     0.0913   -10.9163 H             1 RES     
    4311 C           32.6235     1.7323   -11.0195 C             1 RES     
    4312 H           33.4121     1.1888   -10.4992 H             1 RES     
    4313 H           32.6591     2.7844   -10.7366 H             1 RES     
    4314 C           32.8286     1.6028   -12.5403 C             1 RES     
    4315 H           32.0399     2.1463   -13.0606 H             1 RES     
    4316 H           32.7930     0.5507   -12.8231 H             1 RES     
    4317 C           34.1981     2.1917   -12.9263 C             1 RES     
    4318 H           34.9868     1.6482   -12.4060 H             1 RES     
    4319 H           34.2337     3.2438   -12.6434 H             1 RES     
    4320 C           34.4032     2.0622   -14.4471 C             1 RES     
    4321 H           33.6146     2.6057   -14.9674 H             1 RES     
    4322 H           34.3676     1.0101   -14.7299 H             1 RES     
    4323 C           35.7728     2.6511   -14.8331 C             1 RES     
    4324 H           36.5614     2.1076   -14.3128 H             1 RES     
    4325 H           35.8084     3.7032   -14.5503 H             1 RES     
    4326 C           35.9778     2.5216   -16.3539 C             1 RES     
    4327 H           35.1892     3.0651   -16.8742 H             1 RES     
    4328 H           35.9422     1.4695   -16.6368 H             1 RES     
    4329 C           37.3474     3.1105   -16.7399 C             1 RES     
    4330 H           38.1361     2.5670   -16.2196 H             1 RES     
    4331 H           37.3830     4.1626   -16.4571 H             1 RES     
    4332 C           37.5525     2.9810   -18.2607 C             1 RES     
    4333 H           36.7638     3.5245   -18.7810 H             1 RES     
    4334 H           37.5169     1.9289   -18.5436 H             1 RES     
    4335 C           38.9221     3.5699   -18.6468 C             1 RES     
    4336 H           39.7107     3.0264   -18.1265 H             1 RES     
    4337 H           38.9577     4.6220   -18.3639 H             1 RES     
    4338 C           39.1271     3.4404   -20.1675 C             1 RES     
    4339 H           38.3385     3.9839   -20.6878 H             1 RES     
    4340 H           39.0915     2.3883   -20.4504 H             1 RES     
    4341 C           40.4967     4.0293   -20.5536 C             1 RES     
    4342 H           41.2853     3.4858   -20.0333 H             1 RES     
    4343 H           40.5323     5.0814   -20.2707 H             1 RES     
    4344 C           40.6924     3.9057   -22.0052 C             1 RES     
    4345 H           41.1450     2.9467   -21.8625 H             1 RES     
    4346 H           41.2291     4.4453   -22.7575 H             1 RES     
    4347 H           39.6755     3.7780   -22.3148 H             1 RES     
    4348 C           26.3777     1.8763    -5.3317 C             1 RES     
    4349 O           25.6109     0.9179    -5.4118 O             1 RES     
    4350 O           26.9333     2.4147    -4.0467 O             1 RES     
    4351 C           26.8554     2.6372    -6.4442 C             1 RES     
    4352 H           27.9435     2.5857    -6.4819 H             1 RES     
    4353 H           26.5441     3.6748    -6.3239 H             1 RES     
    4354 C           26.2696     2.0744    -7.7526 C             1 RES     
    4355 H           25.1815     2.1259    -7.7149 H             1 RES     
    4356 H           26.5808     1.0368    -7.8730 H             1 RES     
    4357 C           26.7815     2.9050    -8.9441 C             1 RES     
    4358 H           27.8697     2.8535    -8.9817 H             1 RES     
    4359 H           26.4703     3.9427    -8.8237 H             1 RES     
    4360 C           26.1958     2.3423   -10.2525 C             1 RES     
    4361 H           25.1076     2.3938   -10.2148 H             1 RES     
    4362 H           26.5070     1.3046   -10.3728 H             1 RES     
    4363 C           26.7077     3.1729   -11.4439 C             1 RES     
    4364 H           27.7958     3.1214   -11.4816 H             1 RES     
    4365 H           26.3965     4.2105   -11.3236 H             1 RES     
    4366 C           26.1219     2.6101   -12.7523 C             1 RES     
    4367 H           25.0338     2.6616   -12.7147 H             1 RES     
    4368 H           26.4332     1.5724   -12.8727 H             1 RES     
    4369 C           26.6339     3.4407   -13.9438 C             1 RES     
    4370 H           27.7220     3.3892   -13.9815 H             1 RES     
    4371 H           26.3227     4.4784   -13.8234 H             1 RES     
    4372 C           26.0481     2.8780   -15.2522 C             1 RES     
    4373 H           24.9600     2.9294   -15.2145 H             1 RES     
    4374 H           26.3593     1.8403   -15.3725 H             1 RES     
    4375 C           26.5600     3.7085   -16.4437 C             1 RES     
    4376 H           27.6482     3.6570   -16.4813 H             1 RES     
    4377 H           26.2488     4.7462   -16.3233 H             1 RES     
    4378 C           25.9743     3.1458   -17.7520 C             1 RES     
    4379 H           24.8862     3.1973   -17.7144 H             1 RES     
    4380 H           26.2855     2.1081   -17.8724 H             1 RES     
    4381 C           26.4862     3.9764   -18.9435 C             1 RES     
    4382 H           27.5743     3.9249   -18.9812 H             1 RES     
    4383 H           26.1750     5.0141   -18.8232 H             1 RES     
    4384 C           25.9005     3.4136   -20.2519 C             1 RES     
    4385 H           24.8123     3.4651   -20.2143 H             1 RES     
    4386 H           26.2117     2.3760   -20.3723 H             1 RES     
    4387 C           26.4124     4.2442   -21.4434 C             1 RES     
    4388 H           27.5005     4.1927   -21.4811 H             1 RES     
    4389 H           26.1012     5.2819   -21.3230 H             1 RES     
    4390 C           25.8266     3.6815   -22.7518 C             1 RES     
    4391 H           24.7385     3.7330   -22.7141 H             1 RES     
    4392 H           26.1378     2.6438   -22.8721 H             1 RES     
    4393 C           26.3386     4.5121   -23.9433 C             1 RES     
    4394 H           27.4267     4.4606   -23.9809 H             1 RES     
    4395 H           26.0273     5.5497   -23.8229 H             1 RES     
    4396 C           25.7528     3.9493   -25.2516 C             1 RES     
    4397 H           24.6647     4.0008   -25.2140 H             1 RES     
    4398 H           26.0640     2.9117   -25.3720 H             1 RES     
    4399 C           26.2415     4.7422   -26.3890 C             1 RES     
    4400 H           25.4004     5.3968   -26.2940 H             1 RES     
    4401 H           26.4373     4.5606   -27.4253 H             1 RES     
    4402 H           27.0998     5.1960   -25.9378 H             1 RES     
    4403 N            5.4772    32.8634     5.0000 N             1 RES     
    4404 C            5.7800    34.2982     5.2164 C             1 RES     
    4405 H            6.7250    34.5981     4.7159 H             1 RES     
    4406 H            5.9098    34.5202     6.2997 H             1 RES     
    4407 H            4.9589    34.9429     4.8309 H             1 RES     
    4408 C            6.6036    32.0390     5.4991 C             1 RES     
    4409 H            6.4123    30.9558     5.3296 H             1 RES     
    4410 H            6.7583    32.1926     6.5909 H             1 RES     
    4411 H            7.5599    32.3074     5.0024 H             1 RES     
    4412 C            4.2651    32.5193     5.7821 C             1 RES     
    4413 H            4.4161    32.7103     6.8687 H             1 RES     
    4414 H            4.0016    31.4441     5.6630 H             1 RES     
    4415 H            3.3895    33.1233     5.4530 H             1 RES     
    4416 C            5.1933    32.5797     3.5602 C             1 RES     
    4417 H            4.3172    33.1764     3.2192 H             1 RES     
    4418 H            4.9258    31.5070     3.4280 H             1 RES     
    4419 C            6.3448    32.8780     2.5893 C             1 RES     
    4420 H            7.2365    32.2467     2.7771 H             1 RES     
    4421 H            6.6147    33.9528     2.5636 H             1 RES     
    4422 P            5.5294    33.8187     0.4251 P             1 RES     
    4423 O            5.2857    33.4848    -1.1206 O             1 RES     
    4424 O            6.1321    32.5321     1.1609 O             1 RES     
    4425 O            6.5933    35.0126     0.4782 O             1 RES     
    4426 O            4.1009    34.1735     1.0524 O             1 RES     
    4427 C            4.7276    34.6982    -1.7698 C             1 RES     
    4428 H            5.4349    35.5215    -1.6696 H             1 RES     
    4429 H            3.7865    34.9665    -1.2898 H             1 RES     
    4430 C            4.8921    32.9664    -3.5864 C             1 RES     
    4431 H            5.9504    32.8319    -3.3625 H             1 RES     
    4432 H            4.3020    32.2770    -2.9827 H             1 RES     
    4433 C            4.4792    34.4142    -3.2629 C             1 RES     
    4434 H            3.4210    34.5487    -3.4869 H             1 RES     
    4435 C            6.0293    33.1478    -5.4073 C             1 RES     
    4436 O            6.8800    33.5611    -4.6210 O             1 RES     
    4437 O            4.6550    32.6953    -5.0117 O             1 RES     
    4438 C            6.2131    33.0219    -6.8198 C             1 RES     
    4439 H            5.4770    33.6347    -7.3401 H             1 RES     
    4440 H            6.0823    31.9774    -7.1027 H             1 RES     
    4441 C            7.6305    33.4841    -7.2058 C             1 RES     
    4442 H            8.3666    32.8713    -6.6855 H             1 RES     
    4443 H            7.7613    34.5286    -6.9230 H             1 RES     
    4444 C            7.8230    33.3366    -8.7266 C             1 RES     
    4445 H            7.0869    33.9494    -9.2469 H             1 RES     
    4446 H            7.6921    32.2921    -9.0095 H             1 RES     
    4447 C            9.2403    33.7988    -9.1127 C             1 RES     
    4448 H            9.9764    33.1860    -8.5924 H             1 RES     
    4449 H            9.3712    34.8433    -8.8298 H             1 RES     
    4450 C            9.4328    33.6512   -10.6334 C             1 RES     
    4451 H            8.6967    34.2641   -11.1537 H             1 RES     
    4452 H            9.3019    32.6068   -10.9163 H             1 RES     
    4453 C           10.8501    34.1135   -11.0195 C             1 RES     
    4454 H           11.5862    33.5007   -10.4992 H             1 RES     
    4455 H           10.9810    35.1580   -10.7366 H             1 RES     
    4456 C           11.0426    33.9659   -12.5403 C             1 RES     
    4457 H           10.3065    34.5788   -13.0606 H             1 RES     
    4458 H           10.9117    32.9215   -12.8231 H             1 RES     
    4459 C           12.4599    34.4282   -12.9263 C             1 RES     
    4460 H           13.1960    33.8154   -12.4060 H             1 RES     
    4461 H           12.5908    35.4727   -12.6434 H             1 RES     
    4462 C           12.6524    34.2806   -14.4471 C             1 RES     
    4463 H           11.9163    34.8935   -14.9674 H             1 RES     
    4464 H           12.5215    33.2361   -14.7299 H             1 RES     
    4465 C           14.0698    34.7429   -14.8331 C             1 RES     
    4466 H           14.8058    34.1301   -14.3128 H             1 RES     
    4467 H           14.2006    35.7874   -14.5503 H             1 RES     
    4468 C           14.2622    34.5953   -16.3539 C             1 RES     
    4469 H           13.5261    35.2082   -16.8742 H             1 RES     
    4470 H           14.1314    33.5508   -16.6368 H             1 RES     
    4471 C           15.6796    35.0576   -16.7399 C             1 RES     
    4472 H           16.4157    34.4448   -16.2196 H             1 RES     
    4473 H           15.8104    36.1021   -16.4571 H             1 RES     
    4474 C           15.8720    34.9100   -18.2607 C             1 RES     
    4475 H           15.1360    35.5229   -18.7810 H             1 RES     
    4476 H           15.7412    33.8655   -18.5436 H             1 RES     
    4477 C           17.2894    35.3723   -18.6468 C             1 RES     
    4478 H           18.0255    34.7595   -18.1265 H             1 RES     
    4479 H           17.4203    36.4168   -18.3639 H             1 RES     
    4480 C           17.4819    35.2247   -20.1675 C             1 RES     
    4481 H           16.7458    35.8376   -20.6878 H             1 RES     
    4482 H           17.3510    34.1802   -20.4504 H             1 RES     
    4483 C           18.8992    35.6870   -20.5536 C             1 RES     
    4484 H           19.6353    35.0742   -20.0333 H             1 RES     
    4485 H           19.0301    36.7315   -20.2707 H             1 RES     
    4486 C           19.0829    35.5461   -22.0052 C             1 RES     
    4487 H           19.4467    34.5500   -21.8625 H             1 RES     
    4488 H           19.6663    36.0349   -22.7575 H             1 RES     
    4489 H           18.0586    35.5112   -22.3148 H             1 RES     
    4490 C            4.6432    34.8233    -5.3317 C             1 RES     
    4491 O            3.7926    33.9385    -5.4118 O             1 RES     
    4492 O            5.2453    35.3092    -4.0467 O             1 RES     
    4493 C            5.1878    35.5378    -6.4442 C             1 RES     
    4494 H            6.2668    35.3878    -6.4819 H             1 RES     
    4495 H            4.9720    36.5994    -6.3239 H             1 RES     
    4496 C            4.5534    35.0305    -7.7526 C             1 RES     
    4497 H            3.4745    35.1805    -7.7149 H             1 RES     
    4498 H            4.7693    33.9689    -7.8730 H             1 RES     
    4499 C            5.1386    35.8112    -8.9441 C             1 RES     
    4500 H            6.2176    35.6613    -8.9817 H             1 RES     
    4501 H            4.9228    36.8728    -8.8237 H             1 RES     
    4502 C            4.5042    35.3039   -10.2525 C             1 RES     
    4503 H            3.4252    35.4539   -10.2148 H             1 RES     
    4504 H            4.7200    34.2423   -10.3728 H             1 RES     
    4505 C            5.0893    36.0847   -11.4439 C             1 RES     
    4506 H            6.1683    35.9347   -11.4816 H             1 RES     
    4507 H            4.8735    37.1463   -11.3236 H             1 RES     
    4508 C            4.4550    35.5774   -12.7523 C             1 RES     
    4509 H            3.3760    35.7273   -12.7147 H             1 RES     
    4510 H            4.6708    34.5157   -12.8727 H             1 RES     
    4511 C            5.0401    36.3581   -13.9438 C             1 RES     
    4512 H            6.1191    36.2081   -13.9815 H             1 RES     
    4513 H            4.8243    37.4197   -13.8234 H             1 RES     
    4514 C            4.4057    35.8508   -15.2522 C             1 RES     
    4515 H            3.3268    36.0008   -15.2145 H             1 RES     
    4516 H            4.6216    34.7892   -15.3725 H             1 RES     
    4517 C            4.9909    36.6315   -16.4437 C             1 RES     
    4518 H            6.0699    36.4816   -16.4813 H             1 RES     
    4519 H            4.7751    37.6931   -16.3233 H             1 RES     
    4520 C            4.3565    36.1242   -17.7520 C             1 RES     
    4521 H            3.2775    36.2742   -17.7144 H             1 RES     
    4522 H            4.5723    35.0626   -17.8724 H             1 RES     
    4523 C            4.9416    36.9050   -18.9435 C             1 RES     
    4524 H            6.0206    36.7550   -18.9812 H             1 RES     
    4525 H            4.7258    37.9666   -18.8232 H             1 RES     
    4526 C            4.3073    36.3977   -20.2519 C             1 RES     
    4527 H            3.2283    36.5476   -20.2143 H             1 RES     
    4528 H            4.5231    35.3360   -20.3723 H             1 RES     
    4529 C            4.8924    37.1784   -21.4434 C             1 RES     
    4530 H            5.9714    37.0284   -21.4811 H             1 RES     
    4531 H            4.6766    38.2400   -21.3230 H             1 RES     
    4532 C            4.2580    36.6711   -22.7518 C             1 RES     
    4533 H            3.1791    36.8211   -22.7141 H             1 RES     
    4534 H            4.4739    35.6095   -22.8721 H             1 RES     
    4535 C            4.8432    37.4518   -23.9433 C             1 RES     
    4536 H            5.9222    37.3019   -23.9809 H             1 RES     
    4537 H            4.6274    38.5134   -23.8229 H             1 RES     
    4538 C            4.2088    36.9445   -25.2516 C             1 RES     
    4539 H            3.1298    37.0945   -25.2140 H             1 RES     
    4540 H            4.4246    35.8829   -25.3720 H             1 RES     
    4541 C            4.7674    37.6898   -26.3890 C             1 RES     
    4542 H            3.9891    38.4180   -26.2940 H             1 RES     
    4543 H            4.9460    37.4912   -27.4253 H             1 RES     
    4544 H            5.6633    38.0639   -25.9378 H             1 RES     
    4545 N           38.3406    49.2950     5.0000 N             1 RES     
    4546 C           38.1583    50.7501     5.2164 C             1 RES     
    4547 H           38.9536    51.3421     4.7159 H             1 RES     
    4548 H           38.2085    51.0023     6.2997 H             1 RES     
    4549 H           37.1717    51.0914     4.8309 H             1 RES     
    4550 C           39.6744    48.8836     5.4991 C             1 RES     
    4551 H           39.8472    47.7973     5.3296 H             1 RES     
    4552 H           39.7704    49.0793     6.5909 H             1 RES     
    4553 H           40.4907    49.4496     5.0024 H             1 RES     
    4554 C           37.3072    48.5741     5.7821 C             1 RES     
    4555 H           37.3876    48.8039     6.8687 H             1 RES     
    4556 H           37.4092    47.4718     5.6630 H             1 RES     
    4557 H           36.2824    48.8591     5.4530 H             1 RES     
    4558 C           38.1648    48.9343     3.5602 C             1 RES     
    4559 H           37.1419    49.2122     3.2192 H             1 RES     
    4560 H           38.2622    47.8330     3.4280 H             1 RES     
    4561 C           39.1558    49.5921     2.5893 C             1 RES     
    4562 H           40.2047    49.2866     2.7771 H             1 RES     
    4563 H           39.0600    50.6962     2.5636 H             1 RES     
    4564 P           38.0780    50.2151     0.4251 P             1 RES     
    4565 O           37.9567    49.8199    -1.1206 O             1 RES     
    4566 O           39.0677    49.1958     1.1609 O             1 RES     
    4567 O           38.6938    51.6909     0.4782 O             1 RES     
    4568 O           36.6119    50.0840     1.0524 O             1 RES     
    4569 C           37.0330    50.7846    -1.7698 C             1 RES     
    4570 H           37.4327    51.7937    -1.6696 H             1 RES     
    4571 H           36.0558    50.7309    -1.2898 H             1 RES     
    4572 C           37.7539    49.2014    -3.5864 C             1 RES     
    4573 H           38.7980    49.4198    -3.3625 H             1 RES     
    4574 H           37.4212    48.3570    -2.9827 H             1 RES     
    4575 C           36.8909    50.4351    -3.2629 C             1 RES     
    4576 H           35.8468    50.2166    -3.4869 H             1 RES     
    4577 C           38.7695    49.7441    -5.4073 C             1 RES     
    4578 O           39.4387    50.4126    -4.6210 O             1 RES     
    4579 O           37.6183    48.8678    -5.0117 O             1 RES     
    4580 C           38.9844    49.6851    -6.8198 C             1 RES     
    4581 H           38.0886    50.0240    -7.3401 H             1 RES     
    4582 H           39.2017    48.6551    -7.1027 H             1 RES     
    4583 C           40.1731    50.5848    -7.2058 C             1 RES     
    4584 H           41.0690    50.2459    -6.6855 H             1 RES     
    4585 H           39.9558    51.6148    -6.9230 H             1 RES     
    4586 C           40.4033    50.5082    -8.7266 C             1 RES     
    4587 H           39.5074    50.8471    -9.2469 H             1 RES     
    4588 H           40.6206    49.4782    -9.0095 H             1 RES     
    4589 C           41.5920    51.4079    -9.1127 C             1 RES     
    4590 H           42.4878    51.0690    -8.5924 H             1 RES     
    4591 H           41.3747    52.4379    -8.8298 H             1 RES     
    4592 C           41.8221    51.3312   -10.6334 C             1 RES     
    4593 H           40.9263    51.6701   -11.1537 H             1 RES     
    4594 H           42.0394    50.3012   -10.9163 H             1 RES     
    4595 C           43.0109    52.2309   -11.0195 C             1 RES     
    4596 H           43.9067    51.8920   -10.4992 H             1 RES     
    4597 H           42.7935    53.2609   -10.7366 H             1 RES     
    4598 C           43.2410    52.1543   -12.5403 C             1 RES     
    4599 H           42.3451    52.4932   -13.0606 H             1 RES     
    4600 H           43.4583    51.1243   -12.8231 H             1 RES     
    4601 C           44.4297    53.0540   -12.9263 C             1 RES     
    4602 H           45.3255    52.7151   -12.4060 H             1 RES     
    4603 H           44.2124    54.0839   -12.6434 H             1 RES     
    4604 C           44.6598    52.9773   -14.4471 C             1 RES     
    4605 H           43.7640    53.3162   -14.9674 H             1 RES     
    4606 H           44.8771    51.9473   -14.7299 H             1 RES     
    4607 C           45.8486    53.8770   -14.8331 C             1 RES     
    4608 H           46.7444    53.5381   -14.3128 H             1 RES     
    4609 H           45.6312    54.9070   -14.5503 H             1 RES     
    4610 C           46.0787    53.8004   -16.3539 C             1 RES     
    4611 H           45.1828    54.1393   -16.8742 H             1 RES     
    4612 H           46.2960    52.7704   -16.6368 H             1 RES     
    4613 C           47.2674    54.7001   -16.7399 C             1 RES     
    4614 H           48.1632    54.3611   -16.2196 H             1 RES     
    4615 H           47.0501    55.7300   -16.4571 H             1 RES     
    4616 C           47.4975    54.6234   -18.2607 C             1 RES     
    4617 H           46.6017    54.9623   -18.7810 H             1 RES     
    4618 H           47.7148    53.5934   -18.5436 H             1 RES     
    4619 C           48.6863    55.5231   -18.6468 C             1 RES     
    4620 H           49.5821    55.1842   -18.1265 H             1 RES     
    4621 H           48.4689    56.5531   -18.3639 H             1 RES     
    4622 C           48.9164    55.4465   -20.1675 C             1 RES     
    4623 H           48.0205    55.7854   -20.6878 H             1 RES     
    4624 H           49.1337    54.4165   -20.4504 H             1 RES     
    4625 C           50.1051    56.3462   -20.5536 C             1 RES     
    4626 H           51.0009    56.0072   -20.0333 H             1 RES     
    4627 H           49.8878    57.3761   -20.2707 H             1 RES     
    4628 C           50.3248    56.2730   -22.0052 C             1 RES     
    4629 H           50.9938    55.4502   -21.8625 H             1 RES     
    4630 H           50.7166    56.9254   -22.7575 H             1 RES     
    4631 H           49.3680    55.9055   -22.3148 H             1 RES     
    4632 C           36.9123    50.8753    -5.3317 C             1 RES     
    4633 O           36.3973    49.7612    -5.4118 O             1 RES     
    4634 O           37.3228    51.5311    -4.0467 O             1 RES     
    4635 C           37.1938    51.7284    -6.4442 C             1 RES     
    4636 H           38.2626    51.9390    -6.4819 H             1 RES     
    4637 H           36.6432    52.6614    -6.3239 H             1 RES     
    4638 C           36.7599    51.0418    -7.7526 C             1 RES     
    4639 H           35.6910    50.8313    -7.7149 H             1 RES     
    4640 H           37.3105    50.1088    -7.8730 H             1 RES     
    4641 C           37.0580    51.9708    -8.9441 C             1 RES     
    4642 H           38.1268    52.1813    -8.9817 H             1 RES     
    4643 H           36.5074    52.9038    -8.8237 H             1 RES     
    4644 C           36.6240    51.2842   -10.2525 C             1 RES     
    4645 H           35.5552    51.0736   -10.2148 H             1 RES     
    4646 H           37.1746    50.3512   -10.3728 H             1 RES     
    4647 C           36.9222    52.2132   -11.4439 C             1 RES     
    4648 H           37.9910    52.4237   -11.4816 H             1 RES     
    4649 H           36.3716    53.1461   -11.3236 H             1 RES     
    4650 C           36.4882    51.5266   -12.7523 C             1 RES     
    4651 H           35.4194    51.3160   -12.7147 H             1 RES     
    4652 H           37.0388    50.5936   -12.8727 H             1 RES     
    4653 C           36.7864    52.4555   -13.9438 C             1 RES     
    4654 H           37.8552    52.6661   -13.9815 H             1 RES     
    4655 H           36.2358    53.3885   -13.8234 H             1 RES     
    4656 C           36.3524    51.7689   -15.2522 C             1 RES     
    4657 H           35.2836    51.5584   -15.2145 H             1 RES     
    4658 H           36.9030    50.8359   -15.3725 H             1 RES     
    4659 C           36.6506    52.6979   -16.4437 C             1 RES     
    4660 H           37.7194    52.9085   -16.4813 H             1 RES     
    4661 H           36.1000    53.6309   -16.3233 H             1 RES     
    4662 C           36.2166    52.0113   -17.7520 C             1 RES     
    4663 H           35.1478    51.8008   -17.7144 H             1 RES     
    4664 H           36.7672    51.0783   -17.8724 H             1 RES     
    4665 C           36.5148    52.9403   -18.9435 C             1 RES     
    4666 H           37.5836    53.1508   -18.9812 H             1 RES     
    4667 H           35.9642    53.8733   -18.8232 H             1 RES     
    4668 C           36.0808    52.2537   -20.2519 C             1 RES     
    4669 H           35.0120    52.0431   -20.2143 H             1 RES     
    4670 H           36.6314    51.3207   -20.3723 H             1 RES     
    4671 C           36.3790    53.1827   -21.4434 C             1 RES     
    4672 H           37.4478    53.3932   -21.4811 H             1 RES     
    4673 H           35.8284    54.1156   -21.3230 H             1 RES     
    4674 C           35.9450    52.4961   -22.7518 C             1 RES     
    4675 H           34.8762    52.2855   -22.7141 H             1 RES     
    4676 H           36.4956    51.5631   -22.8721 H             1 RES     
    4677 C           36.2432    53.4250   -23.9433 C             1 RES     
    4678 H           37.3120    53.6356   -23.9809 H             1 RES     
    4679 H           35.6926    54.3580   -23.8229 H             1 RES     
    4680 C           35.8092    52.7384   -25.2516 C             1 RES     
    4681 H           34.7404    52.5279   -25.2140 H             1 RES     
    4682 H           36.3598    51.8054   -25.3720 H             1 RES     
    4683 C           36.0938    53.6252   -26.3890 C             1 RES     
    4684 H           35.1205    54.0594   -26.2940 H             1 RES     
    4685 H           36.3274    53.4959   -27.4253 H             1 RES     
    4686 H           36.8185    54.2713   -25.9378 H             1 RES     
    4687 N            5.4772    16.4317     5.0000 N             1 RES     
    4688 C            5.9400    17.8232     5.2164 C             1 RES     
    4689 H            6.9128    18.0145     4.7159 H             1 RES     
    4690 H            6.0941    18.0291     6.2997 H             1 RES     
    4691 H            5.1969    18.5564     4.8309 H             1 RES     
    4692 C            6.5034    15.4854     5.4991 C             1 RES     
    4693 H            6.1910    14.4308     5.3296 H             1 RES     
    4694 H            6.6744    15.6207     6.5909 H             1 RES     
    4695 H            7.4839    15.6442     5.0024 H             1 RES     
    4696 C            4.2340    16.2266     5.7821 C             1 RES     
    4697 H            4.4056    16.3993     6.8687 H             1 RES     
    4698 H            3.8509    15.1880     5.6630 H             1 RES     
    4699 H            3.4322    16.9256     5.4530 H             1 RES     
    4700 C            5.1631    16.1819     3.5602 C             1 RES     
    4701 H            4.3600    16.8737     3.2192 H             1 RES     
    4702 H            4.7762    15.1462     3.4280 H             1 RES     
    4703 C            6.3409    16.3483     2.5893 C             1 RES     
    4704 H            7.1556    15.6204     2.7771 H             1 RES     
    4705 H            6.7303    17.3858     2.5636 H             1 RES     
    4706 P            5.6369    17.3751     0.4251 P             1 RES     
    4707 O            5.3571    17.0708    -1.1206 O             1 RES     
    4708 O            6.0905    16.0287     1.1609 O             1 RES     
    4709 O            6.8287    18.4413     0.4782 O             1 RES     
    4710 O            4.2576    17.8888     1.0524 O             1 RES     
    4711 C            4.9395    18.3394    -1.7698 C             1 RES     
    4712 H            5.7351    19.0776    -1.6696 H             1 RES     
    4713 H            4.0347    18.7122    -1.2898 H             1 RES     
    4714 C            4.9075    16.6001    -3.5864 C             1 RES     
    4715 H            5.9438    16.3471    -3.3625 H             1 RES     
    4716 H            4.2433    15.9816    -2.9827 H             1 RES     
    4717 C            4.6606    18.0853    -3.2629 C             1 RES     
    4718 H            3.6243    18.3383    -3.4869 H             1 RES     
    4719 C            6.0579    16.6520    -5.4073 C             1 RES     
    4720 O            6.9498    16.9667    -4.6210 O             1 RES     
    4721 O            4.6413    16.3575    -5.0117 O             1 RES     
    4722 C            6.2263    16.5061    -6.8198 C             1 RES     
    4723 H            5.5641    17.1981    -7.3401 H             1 RES     
    4724 H            5.9784    15.4831    -7.1027 H             1 RES     
    4725 C            7.6868    16.8055    -7.2058 C             1 RES     
    4726 H            8.3490    16.1135    -6.6855 H             1 RES     
    4727 H            7.9347    17.8285    -6.9230 H             1 RES     
    4728 C            7.8614    16.6371    -8.7266 C             1 RES     
    4729 H            7.1991    17.3291    -9.2469 H             1 RES     
    4730 H            7.6135    15.6141    -9.0095 H             1 RES     
    4731 C            9.3218    16.9365    -9.1127 C             1 RES     
    4732 H            9.9841    16.2445    -8.5924 H             1 RES     
    4733 H            9.5697    17.9596    -8.8298 H             1 RES     
    4734 C            9.4964    16.7681   -10.6334 C             1 RES     
    4735 H            8.8342    17.4601   -11.1537 H             1 RES     
    4736 H            9.2485    15.7451   -10.9163 H             1 RES     
    4737 C           10.9569    17.0675   -11.0195 C             1 RES     
    4738 H           11.6191    16.3755   -10.4992 H             1 RES     
    4739 H           11.2048    18.0906   -10.7366 H             1 RES     
    4740 C           11.1315    16.8992   -12.5403 C             1 RES     
    4741 H           10.4692    17.5911   -13.0606 H             1 RES     
    4742 H           10.8836    15.8761   -12.8231 H             1 RES     
    4743 C           12.5919    17.1985   -12.9263 C             1 RES     
    4744 H           13.2542    16.5066   -12.4060 H             1 RES     
    4745 H           12.8398    18.2216   -12.6434 H             1 RES     
    4746 C           12.7665    17.0302   -14.4471 C             1 RES     
    4747 H           12.1043    17.7222   -14.9674 H             1 RES     
    4748 H           12.5186    16.0071   -14.7299 H             1 RES     
    4749 C           14.2270    17.3296   -14.8331 C             1 RES     
    4750 H           14.8892    16.6376   -14.3128 H             1 RES     
    4751 H           14.4749    18.3526   -14.5503 H             1 RES     
    4752 C           14.4016    17.1612   -16.3539 C             1 RES     
    4753 H           13.7393    17.8532   -16.8742 H             1 RES     
    4754 H           14.1537    16.1381   -16.6368 H             1 RES     
    4755 C           15.8620    17.4606   -16.7399 C             1 RES     
    4756 H           16.5243    16.7686   -16.2196 H             1 RES     
    4757 H           16.1099    18.4836   -16.4571 H             1 RES     
    4758 C           16.0366    17.2922   -18.2607 C             1 RES     
    4759 H           15.3744    17.9842   -18.7810 H             1 RES     
    4760 H           15.7887    16.2692   -18.5436 H             1 RES     
    4761 C           17.4971    17.5916   -18.6468 C             1 RES     
    4762 H           18.1593    16.8996   -18.1265 H             1 RES     
    4763 H           17.7450    18.6146   -18.3639 H             1 RES     
    4764 C           17.6717    17.4232   -20.1675 C             1 RES     
    4765 H           17.0094    18.1152   -20.6878 H             1 RES     
    4766 H           17.4238    16.4002   -20.4504 H             1 RES     
    4767 C           19.1321    17.7226   -20.5536 C             1 RES     
    4768 H           19.7943    17.0306   -20.0333 H             1 RES     
    4769 H           19.3800    18.7456   -20.2707 H             1 RES     
    4770 C           19.2988    17.5619   -22.0052 C             1 RES     
    4771 H           19.5478    16.5311   -21.8625 H             1 RES     
    4772 H           19.9336    17.9817   -22.7575 H             1 RES     
    4773 H           18.2771    17.6428   -22.3148 H             1 RES     
    4774 C            4.8697    18.4733    -5.3317 C             1 RES     
    4775 O            3.9247    17.6900    -5.4118 O             1 RES     
    4776 O            5.5228    18.8881    -4.0467 O             1 RES     
    4777 C            5.4915    19.1217    -6.4442 C             1 RES     
    4778 H            6.5466    18.8509    -6.4819 H             1 RES     
    4779 H            5.3968    20.2009    -6.3239 H             1 RES     
    4780 C            4.8039    18.6892    -7.7526 C             1 RES     
    4781 H            3.7487    18.9600    -7.7149 H             1 RES     
    4782 H            4.8985    17.6100    -7.8730 H             1 RES     
    4783 C            5.4734    19.3989    -8.9441 C             1 RES     
    4784 H            6.5286    19.1282    -8.9817 H             1 RES     
    4785 H            5.3788    20.4781    -8.8237 H             1 RES     
    4786 C            4.7858    18.9665   -10.2525 C             1 RES     
    4787 H            3.7307    19.2372   -10.2148 H             1 RES     
    4788 H            4.8805    17.8873   -10.3728 H             1 RES     
    4789 C            5.4554    19.6762   -11.4439 C             1 RES     
    4790 H            6.5105    19.4054   -11.4816 H             1 RES     
    4791 H            5.3607    20.7554   -11.3236 H             1 RES     
    4792 C            4.7678    19.2437   -12.7523 C             1 RES     
    4793 H            3.7126    19.5145   -12.7147 H             1 RES     
    4794 H            4.8624    18.1645   -12.8727 H             1 RES     
    4795 C            5.4373    19.9534   -13.9438 C             1 RES     
    4796 H            6.4925    19.6827   -13.9815 H             1 RES     
    4797 H            5.3427    21.0326   -13.8234 H             1 RES     
    4798 C            4.7497    19.5210   -15.2522 C             1 RES     
    4799 H            3.6946    19.7917   -15.2145 H             1 RES     
    4800 H            4.8444    18.4418   -15.3725 H             1 RES     
    4801 C            5.4192    20.2307   -16.4437 C             1 RES     
    4802 H            6.4744    19.9599   -16.4813 H             1 RES     
    4803 H            5.3246    21.3099   -16.3233 H             1 RES     
    4804 C            4.7317    19.7982   -17.7520 C             1 RES     
    4805 H            3.6765    20.0690   -17.7144 H             1 RES     
    4806 H            4.8263    18.7190   -17.8724 H             1 RES     
    4807 C            5.4012    20.5079   -18.9435 C             1 RES     
    4808 H            6.4563    20.2371   -18.9812 H             1 RES     
    4809 H            5.3065    21.5871   -18.8232 H             1 RES     
    4810 C            4.7136    20.0754   -20.2519 C             1 RES     
    4811 H            3.6584    20.3462   -20.2143 H             1 RES     
    4812 H            4.8082    18.9963   -20.3723 H             1 RES     
    4813 C            5.3831    20.7852   -21.4434 C             1 RES     
    4814 H            6.4383    20.5144   -21.4811 H             1 RES     
    4815 H            5.2885    21.8643   -21.3230 H             1 RES     
    4816 C            4.6955    20.3527   -22.7518 C             1 RES     
    4817 H            3.6404    20.6235   -22.7141 H             1 RES     
    4818 H            4.7902    19.2735   -22.8721 H             1 RES     
    4819 C            5.3651    21.0624   -23.9433 C             1 RES     
    4820 H            6.4202    20.7916   -23.9809 H             1 RES     
    4821 H            5.2704    22.1416   -23.8229 H             1 RES     
    4822 C            4.6775    20.6299   -25.2516 C             1 RES     
    4823 H            3.6223    20.9007   -25.2140 H             1 RES     
    4824 H            4.7721    19.5507   -25.3720 H             1 RES     
    4825 C            5.3166    21.3074   -26.3890 C             1 RES     
    4826 H            4.6255    22.1187   -26.2940 H             1 RES     
    4827 H            5.4716    21.0900   -27.4253 H             1 RES     
    4828 H            6.2490    21.5780   -25.9378 H             1 RES     
    4829 N           16.4317     5.4772     5.0000 N             1 RES     
    4830 C           16.6687     6.9244     5.2164 C             1 RES     
    4831 H           17.5990     7.2671     4.7159 H             1 RES     
    4832 H           16.7882     7.1521     6.2997 H             1 RES     
    4833 H           15.8190     7.5309     4.8309 H             1 RES     
    4834 C           17.5945     4.7051     5.4991 C             1 RES     
    4835 H           17.4528     3.6144     5.3296 H             1 RES     
    4836 H           17.7420     4.8657     6.5909 H             1 RES     
    4837 H           18.5376     5.0169     5.0024 H             1 RES     
    4838 C           15.2365     5.0782     5.7821 C             1 RES     
    4839 H           15.3787     5.2759     6.8687 H             1 RES     
    4840 H           15.0224     3.9921     5.6630 H             1 RES     
    4841 H           14.3343     5.6416     5.4530 H             1 RES     
    4842 C           16.1610     5.1810     3.5602 C             1 RES     
    4843 H           15.2586     5.7370     3.2192 H             1 RES     
    4844 H           15.9427     4.0971     3.4280 H             1 RES     
    4845 C           17.2976     5.5315     2.5893 C             1 RES     
    4846 H           18.2172     4.9415     2.7771 H             1 RES     
    4847 H           17.5182     6.6175     2.5636 H             1 RES     
    4848 P           16.4402     6.4340     0.4251 P             1 RES     
    4849 O           16.2120     6.0893    -1.1206 O             1 RES     
    4850 O           17.1010     5.1763     1.1609 O             1 RES     
    4851 O           17.4485     7.6752     0.4782 O             1 RES     
    4852 O           14.9970     6.7232     1.0524 O             1 RES     
    4853 C           15.5991     7.2759    -1.7698 C             1 RES     
    4854 H           16.2681     8.1307    -1.6696 H             1 RES     
    4855 H           14.6467     7.5010    -1.2898 H             1 RES     
    4856 C           15.8425     5.5534    -3.5864 C             1 RES     
    4857 H           16.9057     5.4674    -3.3625 H             1 RES     
    4858 H           15.2844     4.8378    -2.9827 H             1 RES     
    4859 C           15.3639     6.9810    -3.2629 C             1 RES     
    4860 H           14.3006     7.0669    -3.4869 H             1 RES     
    4861 C           16.9702     5.7866    -5.4073 C             1 RES     
    4862 O           17.8012     6.2383    -4.6210 O             1 RES     
    4863 O           15.6180     5.2718    -5.0117 O             1 RES     
    4864 C           17.1596     5.6691    -6.8198 C             1 RES     
    4865 H           16.3963     6.2477    -7.3401 H             1 RES     
    4866 H           17.0765     4.6198    -7.1027 H             1 RES     
    4867 C           18.5544     6.1956    -7.2058 C             1 RES     
    4868 H           19.3176     5.6170    -6.6855 H             1 RES     
    4869 H           18.6374     7.2450    -6.9230 H             1 RES     
    4870 C           18.7534     6.0570    -8.7266 C             1 RES     
    4871 H           17.9901     6.6356    -9.2469 H             1 RES     
    4872 H           18.6703     5.0076    -9.0095 H             1 RES     
    4873 C           20.1481     6.5835    -9.1127 C             1 RES     
    4874 H           20.9114     6.0049    -8.5924 H             1 RES     
    4875 H           20.2312     7.6329    -8.8298 H             1 RES     
    4876 C           20.3471     6.4448   -10.6334 C             1 RES     
    4877 H           19.5838     7.0234   -11.1537 H             1 RES     
    4878 H           20.2641     5.3955   -10.9163 H             1 RES     
    4879 C           21.7419     6.9713   -11.0195 C             1 RES     
    4880 H           22.5052     6.3927   -10.4992 H             1 RES     
    4881 H           21.8250     8.0207   -10.7366 H             1 RES     
    4882 C           21.9409     6.8327   -12.5403 C             1 RES     
    4883 H           21.1776     7.4113   -13.0606 H             1 RES     
    4884 H           21.8579     5.7833   -12.8231 H             1 RES     
    4885 C           23.3357     7.3592   -12.9263 C             1 RES     
    4886 H           24.0990     6.7806   -12.4060 H             1 RES     
    4887 H           23.4187     8.4085   -12.6434 H             1 RES     
    4888 C           23.5347     7.2205   -14.4471 C             1 RES     
    4889 H           22.7714     7.7991   -14.9674 H             1 RES     
    4890 H           23.4516     6.1711   -14.7299 H             1 RES     
    4891 C           24.9295     7.7470   -14.8331 C             1 RES     
    4892 H           25.6928     7.1684   -14.3128 H             1 RES     
    4893 H           25.0125     8.7964   -14.5503 H             1 RES     
    4894 C           25.1285     7.6084   -16.3539 C             1 RES     
    4895 H           24.3652     8.1870   -16.8742 H             1 RES     
    4896 H           25.0454     6.5590   -16.6368 H             1 RES     
    4897 C           26.5232     8.1349   -16.7399 C             1 RES     
    4898 H           27.2865     7.5563   -16.2196 H             1 RES     
    4899 H           26.6063     9.1842   -16.4571 H             1 RES     
    4900 C           26.7222     7.9962   -18.2607 C             1 RES     
    4901 H           25.9590     8.5748   -18.7810 H             1 RES     
    4902 H           26.6392     6.9468   -18.5436 H             1 RES     
    4903 C           28.1170     8.5227   -18.6468 C             1 RES     
    4904 H           28.8803     7.9441   -18.1265 H             1 RES     
    4905 H           28.2001     9.5721   -18.3639 H             1 RES     
    4906 C           28.3160     8.3840   -20.1675 C             1 RES     
    4907 H           27.5527     8.9626   -20.6878 H             1 RES     
    4908 H           28.2330     7.3347   -20.4504 H             1 RES     
    4909 C           29.7108     8.9105   -20.5536 C             1 RES     
    4910 H           30.4741     8.3319   -20.0333 H             1 RES     
    4911 H           29.7939     9.9599   -20.2707 H             1 RES     
    4912 C           29.9008     8.7782   -22.0052 C             1 RES     
    4913 H           30.3096     7.7997   -21.8625 H             1 RES     
    4914 H           30.4612     9.2931   -22.7575 H             1 RES     
    4915 H           28.8791     8.6965   -22.3148 H             1 RES     
    4916 C           15.5090     7.3971    -5.3317 C             1 RES     
    4917 O           14.6997     6.4743    -5.4118 O             1 RES     
    4918 O           16.0884     7.9099    -4.0467 O             1 RES     
    4919 C           16.0205     8.1357    -6.4442 C             1 RES     
    4920 H           17.1052     8.0351    -6.4819 H             1 RES     
    4921 H           15.7565     9.1863    -6.3239 H             1 RES     
    4922 C           15.4099     7.5999    -7.7526 C             1 RES     
    4923 H           14.3252     7.7005    -7.7149 H             1 RES     
    4924 H           15.6740     6.5493    -7.8730 H             1 RES     
    4925 C           15.9588     8.4066    -8.9441 C             1 RES     
    4926 H           17.0435     8.3060    -8.9817 H             1 RES     
    4927 H           15.6948     9.4572    -8.8237 H             1 RES     
    4928 C           15.3483     7.8708   -10.2525 C             1 RES     
    4929 H           14.2636     7.9714   -10.2148 H             1 RES     
    4930 H           15.6123     6.8202   -10.3728 H             1 RES     
    4931 C           15.8972     8.6775   -11.4439 C             1 RES     
    4932 H           16.9819     8.5769   -11.4816 H             1 RES     
    4933 H           15.6331     9.7281   -11.3236 H             1 RES     
    4934 C           15.2866     8.1418   -12.7523 C             1 RES     
    4935 H           14.2019     8.2423   -12.7147 H             1 RES     
    4936 H           15.5507     7.0911   -12.8727 H             1 RES     
    4937 C           15.8355     8.9484   -13.9438 C             1 RES     
    4938 H           16.9202     8.8478   -13.9815 H             1 RES     
    4939 H           15.5715     9.9990   -13.8234 H             1 RES     
    4940 C           15.2250     8.4127   -15.2522 C             1 RES     
    4941 H           14.1403     8.5132   -15.2145 H             1 RES     
    4942 H           15.4890     7.3620   -15.3725 H             1 RES     
    4943 C           15.7739     9.2193   -16.4437 C             1 RES     
    4944 H           16.8586     9.1187   -16.4813 H             1 RES     
    4945 H           15.5098    10.2699   -16.3233 H             1 RES     
    4946 C           15.1633     8.6836   -17.7520 C             1 RES     
    4947 H           14.0786     8.7841   -17.7144 H             1 RES     
    4948 H           15.4273     7.6329   -17.8724 H             1 RES     
    4949 C           15.7122     9.4902   -18.9435 C             1 RES     
    4950 H           16.7969     9.3896   -18.9812 H             1 RES     
    4951 H           15.4482    10.5408   -18.8232 H             1 RES     
    4952 C           15.1016     8.9545   -20.2519 C             1 RES     
    4953 H           14.0169     9.0550   -20.2143 H             1 RES     
    4954 H           15.3657     7.9038   -20.3723 H             1 RES     
    4955 C           15.6505     9.7611   -21.4434 C             1 RES     
    4956 H           16.7352     9.6605   -21.4811 H             1 RES     
    4957 H           15.3865    10.8117   -21.3230 H             1 RES     
    4958 C           15.0400     9.2254   -22.7518 C             1 RES     
    4959 H           13.9553     9.3259   -22.7141 H             1 RES     
    4960 H           15.3040     8.1747   -22.8721 H             1 RES     
    4961 C           15.5889    10.0320   -23.9433 C             1 RES     
    4962 H           16.6736     9.9314   -23.9809 H             1 RES     
    4963 H           15.3248    11.0826   -23.8229 H             1 RES     
    4964 C           14.9783     9.4963   -25.2516 C             1 RES     
    4965 H           13.8936     9.5968   -25.2140 H             1 RES     
    4966 H           15.2424     8.4456   -25.3720 H             1 RES     
    4967 C           15.5023    10.2662   -26.3890 C             1 RES     
    4968 H           14.6916    10.9581   -26.2940 H             1 RES     
    4969 H           15.6897    10.0761   -27.4253 H             1 RES     
    4970 H           16.3802    10.6808   -25.9378 H             1 RES     
    4971 N            0.0000    38.3406     5.0000 N             1 RES     
    4972 C            0.1882    39.7949     5.2164 C             1 RES     
    4973 H            1.1064    40.1687     4.7159 H             1 RES     
    4974 H            0.2999    40.0265     6.2997 H             1 RES     
    4975 H           -0.6815    40.3725     4.8309 H             1 RES     
    4976 C            1.1882    37.6080     5.4991 C             1 RES     
    4977 H            1.0833    36.5132     5.3296 H             1 RES     
    4978 H            1.3302    37.7735     6.5909 H             1 RES     
    4979 H            2.1202    37.9514     5.0024 H             1 RES     
    4980 C           -1.1810    37.9015     5.7821 C             1 RES     
    4981 H           -1.0456    38.1039     6.8687 H             1 RES     
    4982 H           -1.3585    36.8089     5.6630 H             1 RES     
    4983 H           -2.1017    38.4343     5.4530 H             1 RES     
    4984 C           -0.2606    38.0354     3.5602 C             1 RES     
    4985 H           -1.1812    38.5608     3.2192 H             1 RES     
    4986 H           -0.4423    36.9448     3.4280 H             1 RES     
    4987 C            0.8636    38.4239     2.5893 C             1 RES     
    4988 H            1.8026    37.8653     2.7771 H             1 RES     
    4989 H            1.0475    39.5168     2.5636 H             1 RES     
    4990 P           -0.0237    39.2971     0.4251 P             1 RES     
    4991 O           -0.2402    38.9449    -1.1206 O             1 RES     
    4992 O            0.6791    38.0623     1.1609 O             1 RES     
    4993 O            0.9422    40.5715     0.4782 O             1 RES     
    4994 O           -1.4758    39.5375     1.0524 O             1 RES     
    4995 C           -0.8927    40.1102    -1.7698 C             1 RES     
    4996 H           -0.2529    40.9870    -1.6696 H             1 RES     
    4997 H           -1.8521    40.3031    -1.2898 H             1 RES     
    4998 C           -0.5914    38.3969    -3.5864 C             1 RES     
    4999 H            0.4741    38.3467    -3.3625 H             1 RES     
    5000 H           -1.1251    37.6629    -2.9827 H             1 RES     
    5001 C           -1.1178    39.8075    -3.2629 C             1 RES     
    5002 H           -2.1833    39.8577    -3.4869 H             1 RES     
    5003 C            0.5278    38.6679    -5.4073 C             1 RES     
    5004 O            1.3431    39.1473    -4.6210 O             1 RES     
    5005 O           -0.8063    38.1079    -5.0117 O             1 RES     
    5006 C            0.7210    38.5569    -6.8198 C             1 RES     
    5007 H           -0.0613    39.1095    -7.3401 H             1 RES     
    5008 H            0.6734    37.5053    -7.1027 H             1 RES     
    5009 C            2.0973    39.1300    -7.2058 C             1 RES     
    5010 H            2.8796    38.5775    -6.6855 H             1 RES     
    5011 H            2.1450    40.1816    -6.9230 H             1 RES     
    5012 C            2.3009    38.9982    -8.7266 C             1 RES     
    5013 H            1.5185    39.5507    -9.2469 H             1 RES     
    5014 H            2.2532    37.9466    -9.0095 H             1 RES     
    5015 C            3.6771    39.5713    -9.1127 C             1 RES     
    5016 H            4.4594    39.0188    -8.5924 H             1 RES     
    5017 H            3.7248    40.6229    -8.8298 H             1 RES     
    5018 C            3.8807    39.4395   -10.6334 C             1 RES     
    5019 H            3.0983    39.9920   -11.1537 H             1 RES     
    5020 H            3.8330    38.3879   -10.9163 H             1 RES     
    5021 C            5.2569    40.0126   -11.0195 C             1 RES     
    5022 H            6.0393    39.4600   -10.4992 H             1 RES     
    5023 H            5.3046    41.0642   -10.7366 H             1 RES     
    5024 C            5.4605    39.8807   -12.5403 C             1 RES     
    5025 H            4.6781    40.4333   -13.0606 H             1 RES     
    5026 H            5.4128    38.8292   -12.8231 H             1 RES     
    5027 C            6.8367    40.4539   -12.9263 C             1 RES     
    5028 H            7.6191    39.9013   -12.4060 H             1 RES     
    5029 H            6.8844    41.5055   -12.6434 H             1 RES     
    5030 C            7.0403    40.3220   -14.4471 C             1 RES     
    5031 H            6.2580    40.8746   -14.9674 H             1 RES     
    5032 H            6.9926    39.2704   -14.7299 H             1 RES     
    5033 C            8.4166    40.8952   -14.8331 C             1 RES     
    5034 H            9.1989    40.3426   -14.3128 H             1 RES     
    5035 H            8.4642    41.9467   -14.5503 H             1 RES     
    5036 C            8.6201    40.7633   -16.3539 C             1 RES     
    5037 H            7.8378    41.3159   -16.8742 H             1 RES     
    5038 H            8.5724    39.7117   -16.6368 H             1 RES     
    5039 C            9.9964    41.3364   -16.7399 C             1 RES     
    5040 H           10.7787    40.7839   -16.2196 H             1 RES     
    5041 H           10.0441    42.3880   -16.4571 H             1 RES     
    5042 C           10.1999    41.2046   -18.2607 C             1 RES     
    5043 H            9.4176    41.7571   -18.7810 H             1 RES     
    5044 H           10.1523    40.1530   -18.5436 H             1 RES     
    5045 C           11.5762    41.7777   -18.6468 C             1 RES     
    5046 H           12.3585    41.2251   -18.1265 H             1 RES     
    5047 H           11.6239    42.8293   -18.3639 H             1 RES     
    5048 C           11.7798    41.6458   -20.1675 C             1 RES     
    5049 H           10.9974    42.1984   -20.6878 H             1 RES     
    5050 H           11.7321    40.5943   -20.4504 H             1 RES     
    5051 C           13.1560    42.2190   -20.5536 C             1 RES     
    5052 H           13.9383    41.6664   -20.0333 H             1 RES     
    5053 H           13.2037    43.2706   -20.2707 H             1 RES     
    5054 C           13.3503    42.0931   -22.0052 C             1 RES     
    5055 H           13.7919    41.1290   -21.8625 H             1 RES     
    5056 H           13.8932    42.6266   -22.7575 H             1 RES     
    5057 H           12.3320    41.9771   -22.3148 H             1 RES     
    5058 C           -0.9868    40.2283    -5.3317 C             1 RES     
    5059 O           -1.7645    39.2788    -5.4118 O             1 RES     
    5060 O           -0.4250    40.7604    -4.0467 O             1 RES     
    5061 C           -0.5004    40.9837    -6.4442 C             1 RES     
    5062 H            0.5870    40.9197    -6.4819 H             1 RES     
    5063 H           -0.7997    42.0249    -6.3239 H             1 RES     
    5064 C           -1.0926    40.4277    -7.7526 C             1 RES     
    5065 H           -2.1801    40.4917    -7.7149 H             1 RES     
    5066 H           -0.7934    39.3865    -7.8730 H             1 RES     
    5067 C           -0.5712    41.2523    -8.9441 C             1 RES     
    5068 H            0.5163    41.1884    -8.9817 H             1 RES     
    5069 H           -0.8705    42.2935    -8.8237 H             1 RES     
    5070 C           -1.1634    40.6964   -10.2525 C             1 RES     
    5071 H           -2.2508    40.7604   -10.2148 H             1 RES     
    5072 H           -0.8641    39.6552   -10.3728 H             1 RES     
    5073 C           -0.6419    41.5210   -11.4439 C             1 RES     
    5074 H            0.4455    41.4570   -11.4816 H             1 RES     
    5075 H           -0.9412    42.5622   -11.3236 H             1 RES     
    5076 C           -1.2341    40.9650   -12.7523 C             1 RES     
    5077 H           -2.3216    41.0290   -12.7147 H             1 RES     
    5078 H           -0.9348    39.9239   -12.8727 H             1 RES     
    5079 C           -0.7127    41.7897   -13.9438 C             1 RES     
    5080 H            0.3748    41.7257   -13.9815 H             1 RES     
    5081 H           -1.0119    42.8309   -13.8234 H             1 RES     
    5082 C           -1.3049    41.2337   -15.2522 C             1 RES     
    5083 H           -2.3923    41.2977   -15.2145 H             1 RES     
    5084 H           -1.0056    40.1925   -15.3725 H             1 RES     
    5085 C           -0.7834    42.0584   -16.4437 C             1 RES     
    5086 H            0.3040    41.9944   -16.4813 H             1 RES     
    5087 H           -1.0827    43.0995   -16.3233 H             1 RES     
    5088 C           -1.3756    41.5024   -17.7520 C             1 RES     
    5089 H           -2.4631    41.5664   -17.7144 H             1 RES     
    5090 H           -1.0763    40.4612   -17.8724 H             1 RES     
    5091 C           -0.8542    42.3270   -18.9435 C             1 RES     
    5092 H            0.2333    42.2630   -18.9812 H             1 RES     
    5093 H           -1.1534    43.3682   -18.8232 H             1 RES     
    5094 C           -1.4464    41.7711   -20.2519 C             1 RES     
    5095 H           -2.5338    41.8350   -20.2143 H             1 RES     
    5096 H           -1.1471    40.7299   -20.3723 H             1 RES     
    5097 C           -0.9249    42.5957   -21.4434 C             1 RES     
    5098 H            0.1625    42.5317   -21.4811 H             1 RES     
    5099 H           -1.2242    43.6369   -21.3230 H             1 RES     
    5100 C           -1.5171    42.0397   -22.7518 C             1 RES     
    5101 H           -2.6046    42.1037   -22.7141 H             1 RES     
    5102 H           -1.2178    40.9986   -22.8721 H             1 RES     
    5103 C           -0.9957    42.8644   -23.9433 C             1 RES     
    5104 H            0.0918    42.8004   -23.9809 H             1 RES     
    5105 H           -1.2949    43.9056   -23.8229 H             1 RES     
    5106 C           -1.5878    42.3084   -25.2516 C             1 RES     
    5107 H           -2.6753    42.3724   -25.2140 H             1 RES     
    5108 H           -1.2886    41.2672   -25.3720 H             1 RES     
    5109 C           -1.0901    43.0956   -26.3890 C             1 RES     
    5110 H           -1.9236    43.7598   -26.2940 H             1 RES     
    5111 H           -0.8963    42.9118   -27.4253 H             1 RES     
    5112 H           -0.2266    43.5395   -25.9378 H             1 RES     
    5113 N           21.9089    43.8178     5.0000 N             1 RES     
    5114 C           22.2606    45.2415     5.2164 C             1 RES     
    5115 H           23.2152    45.5089     4.7159 H             1 RES     
    5116 H           22.3979    45.4589     6.2997 H             1 RES     
    5117 H           21.4619    45.9138     4.8309 H             1 RES     
    5118 C           23.0064    42.9554     5.4991 C             1 RES     
    5119 H           22.7782    41.8794     5.3296 H             1 RES     
    5120 H           23.1663    43.1037     6.5909 H             1 RES     
    5121 H           23.9714    43.1910     5.0024 H             1 RES     
    5122 C           20.6857    43.5154     5.7821 C             1 RES     
    5123 H           20.8432    43.7011     6.8687 H             1 RES     
    5124 H           20.3857    42.4498     5.6630 H             1 RES     
    5125 H           19.8313    44.1489     5.4530 H             1 RES     
    5126 C           21.6155    43.5441     3.5602 C             1 RES     
    5127 H           20.7603    44.1704     3.2192 H             1 RES     
    5128 H           21.3114    42.4811     3.4280 H             1 RES     
    5129 C           22.7764    43.8028     2.5893 C             1 RES     
    5130 H           23.6460    43.1414     2.7771 H             1 RES     
    5131 H           23.0829    44.8678     2.5636 H             1 RES     
    5132 P           21.9937    44.7709     0.4251 P             1 RES     
    5133 O           21.7387    44.4454    -1.1206 O             1 RES     
    5134 O           22.5521    43.4644     1.1609 O             1 RES     
    5135 O           23.0978    45.9277     0.4782 O             1 RES     
    5136 O           20.5782    45.1742     1.0524 O             1 RES     
    5137 C           21.2224    45.6772    -1.7698 C             1 RES     
    5138 H           21.9574    46.4758    -1.6696 H             1 RES     
    5139 H           20.2910    45.9775    -1.2898 H             1 RES     
    5140 C           21.3277    43.9407    -3.5864 C             1 RES     
    5141 H           22.3807    43.7702    -3.3625 H             1 RES     
    5142 H           20.7143    43.2719    -2.9827 H             1 RES     
    5143 C           20.9645    45.4019    -3.2629 C             1 RES     
    5144 H           19.9114    45.5724    -3.4869 H             1 RES     
    5145 C           22.4704    44.0832    -5.4073 C             1 RES     
    5146 O           23.3347    44.4672    -4.6210 O             1 RES     
    5147 O           21.0814    43.6780    -5.0117 O             1 RES     
    5148 C           22.6498    43.9511    -6.8198 C             1 RES     
    5149 H           21.9351    44.5887    -7.3401 H             1 RES     
    5150 H           22.4833    42.9117    -7.1027 H             1 RES     
    5151 C           24.0821    44.3646    -7.2058 C             1 RES     
    5152 H           24.7968    43.7270    -6.6855 H             1 RES     
    5153 H           24.2486    45.4040    -6.9230 H             1 RES     
    5154 C           24.2694    44.2106    -8.7266 C             1 RES     
    5155 H           23.5547    44.8482    -9.2469 H             1 RES     
    5156 H           24.1029    43.1711    -9.0095 H             1 RES     
    5157 C           25.7017    44.6241    -9.1127 C             1 RES     
    5158 H           26.4165    43.9865    -8.5924 H             1 RES     
    5159 H           25.8682    45.6635    -8.8298 H             1 RES     
    5160 C           25.8891    44.4701   -10.6334 C             1 RES     
    5161 H           25.1743    45.1077   -11.1537 H             1 RES     
    5162 H           25.7226    43.4306   -10.9163 H             1 RES     
    5163 C           27.3214    44.8836   -11.0195 C             1 RES     
    5164 H           28.0361    44.2460   -10.4992 H             1 RES     
    5165 H           27.4879    45.9230   -10.7366 H             1 RES     
    5166 C           27.5087    44.7295   -12.5403 C             1 RES     
    5167 H           26.7940    45.3672   -13.0606 H             1 RES     
    5168 H           27.3422    43.6901   -12.8231 H             1 RES     
    5169 C           28.9410    45.1431   -12.9263 C             1 RES     
    5170 H           29.6557    44.5055   -12.4060 H             1 RES     
    5171 H           29.1075    46.1825   -12.6434 H             1 RES     
    5172 C           29.1283    44.9890   -14.4471 C             1 RES     
    5173 H           28.4136    45.6267   -14.9674 H             1 RES     
    5174 H           28.9618    43.9496   -14.7299 H             1 RES     
    5175 C           30.5606    45.4026   -14.8331 C             1 RES     
    5176 H           31.2754    44.7650   -14.3128 H             1 RES     
    5177 H           30.7271    46.4420   -14.5503 H             1 RES     
    5178 C           30.7480    45.2485   -16.3539 C             1 RES     
    5179 H           30.0332    45.8862   -16.8742 H             1 RES     
    5180 H           30.5815    44.2091   -16.6368 H             1 RES     
    5181 C           32.1803    45.6621   -16.7399 C             1 RES     
    5182 H           32.8950    45.0245   -16.2196 H             1 RES     
    5183 H           32.3468    46.7015   -16.4571 H             1 RES     
    5184 C           32.3676    45.5080   -18.2607 C             1 RES     
    5185 H           31.6529    46.1457   -18.7810 H             1 RES     
    5186 H           32.2011    44.4686   -18.5436 H             1 RES     
    5187 C           33.7999    45.9216   -18.6468 C             1 RES     
    5188 H           34.5146    45.2840   -18.1265 H             1 RES     
    5189 H           33.9664    46.9610   -18.3639 H             1 RES     
    5190 C           33.9872    45.7675   -20.1675 C             1 RES     
    5191 H           33.2725    46.4052   -20.6878 H             1 RES     
    5192 H           33.8207    44.7281   -20.4504 H             1 RES     
    5193 C           35.4195    46.1811   -20.5536 C             1 RES     
    5194 H           36.1343    45.5435   -20.0333 H             1 RES     
    5195 H           35.5860    47.2205   -20.2707 H             1 RES     
    5196 C           35.5983    46.0340   -22.0052 C             1 RES     
    5197 H           35.9278    45.0261   -21.8625 H             1 RES     
    5198 H           36.1981    46.5026   -22.7575 H             1 RES     
    5199 H           34.5734    46.0341   -22.3148 H             1 RES     
    5200 C           21.1423    45.8051    -5.3317 C             1 RES     
    5201 O           20.2620    44.9498    -5.4118 O             1 RES     
    5202 O           21.7607    46.2702    -4.0467 O             1 RES     
    5203 C           21.7111    46.5006    -6.4442 C             1 RES     
    5204 H           22.7843    46.3138    -6.4819 H             1 RES     
    5205 H           21.5317    47.5689    -6.3239 H             1 RES     
    5206 C           21.0597    46.0153    -7.7526 C             1 RES     
    5207 H           19.9865    46.2020    -7.7149 H             1 RES     
    5208 H           21.2391    44.9469    -7.8730 H             1 RES     
    5209 C           21.6712    46.7755    -8.9441 C             1 RES     
    5210 H           22.7444    46.5888    -8.9817 H             1 RES     
    5211 H           21.4918    47.8439    -8.8237 H             1 RES     
    5212 C           21.0199    46.2902   -10.2525 C             1 RES     
    5213 H           19.9466    46.4770   -10.2148 H             1 RES     
    5214 H           21.1993    45.2218   -10.3728 H             1 RES     
    5215 C           21.6313    47.0505   -11.4439 C             1 RES     
    5216 H           22.7046    46.8637   -11.4816 H             1 RES     
    5217 H           21.4519    48.1189   -11.3236 H             1 RES     
    5218 C           20.9800    46.5652   -12.7523 C             1 RES     
    5219 H           19.9068    46.7519   -12.7147 H             1 RES     
    5220 H           21.1594    45.4968   -12.8727 H             1 RES     
    5221 C           21.5915    47.3254   -13.9438 C             1 RES     
    5222 H           22.6647    47.1387   -13.9815 H             1 RES     
    5223 H           21.4121    48.3938   -13.8234 H             1 RES     
    5224 C           20.9401    46.8401   -15.2522 C             1 RES     
    5225 H           19.8669    47.0269   -15.2145 H             1 RES     
    5226 H           21.1195    45.7717   -15.3725 H             1 RES     
    5227 C           21.5516    47.6004   -16.4437 C             1 RES     
    5228 H           22.6248    47.4136   -16.4813 H             1 RES     
    5229 H           21.3722    48.6688   -16.3233 H             1 RES     
    5230 C           20.9003    47.1151   -17.7520 C             1 RES     
    5231 H           19.8271    47.3018   -17.7144 H             1 RES     
    5232 H           21.0797    46.0467   -17.8724 H             1 RES     
    5233 C           21.5118    47.8754   -18.9435 C             1 RES     
    5234 H           22.5850    47.6886   -18.9812 H             1 RES     
    5235 H           21.3324    48.9437   -18.8232 H             1 RES     
    5236 C           20.8604    47.3900   -20.2519 C             1 RES     
    5237 H           19.7872    47.5768   -20.2143 H             1 RES     
    5238 H           21.0398    46.3217   -20.3723 H             1 RES     
    5239 C           21.4719    48.1503   -21.4434 C             1 RES     
    5240 H           22.5451    47.9636   -21.4811 H             1 RES     
    5241 H           21.2925    49.2187   -21.3230 H             1 RES     
    5242 C           20.8206    47.6650   -22.7518 C             1 RES     
    5243 H           19.7473    47.8517   -22.7141 H             1 RES     
    5244 H           21.0000    46.5966   -22.8721 H             1 RES     
    5245 C           21.4320    48.4253   -23.9433 C             1 RES     
    5246 H           22.5053    48.2385   -23.9809 H             1 RES     
    5247 H           21.2526    49.4936   -23.8229 H             1 RES     
    5248 C           20.7807    47.9399   -25.2516 C             1 RES     
    5249 H           19.7075    48.1267   -25.2140 H             1 RES     
    5250 H           20.9601    46.8716   -25.3720 H             1 RES     
    5251 C           21.3644    48.6657   -26.3890 C             1 RES     
    5252 H           20.6115    49.4200   -26.2940 H             1 RES     
    5253 H           21.5361    48.4612   -27.4253 H             1 RES     
    5254 H           22.2726    49.0089   -25.9378 H             1 RES     
    5255 N            0.0000    10.9545     5.0000 N             1 RES     
    5256 C           -0.0303    12.4206     5.2164 C             1 RES     
    5257 H            0.8221    12.9268     4.7159 H             1 RES     
    5258 H            0.0458    12.6663     6.2997 H             1 RES     
    5259 H           -0.9762    12.8624     4.8309 H             1 RES     
    5260 C            1.2839    10.4068     5.4991 C             1 RES     
    5261 H            1.3431     9.3085     5.3296 H             1 RES     
    5262 H            1.3997    10.5915     6.5909 H             1 RES     
    5263 H            2.1545    10.8850     5.0024 H             1 RES     
    5264 C           -1.1026    10.3446     5.7821 C             1 RES     
    5265 H           -0.9988    10.5649     6.8687 H             1 RES     
    5266 H           -1.1155     9.2377     5.6630 H             1 RES     
    5267 H           -2.0923    10.7344     5.4530 H             1 RES     
    5268 C           -0.2123    10.6139     3.5602 C             1 RES     
    5269 H           -1.2008    10.9965     3.2192 H             1 RES     
    5270 H           -0.2297     9.5084     3.4280 H             1 RES     
    5271 C            0.8416    11.1654     2.5893 C             1 RES     
    5272 H            1.8532    10.7526     2.7771 H             1 RES     
    5273 H            0.8609    12.2734     2.5636 H             1 RES     
    5274 P           -0.1657    11.8968     0.4251 P             1 RES     
    5275 O           -0.3274    11.5163    -1.1206 O             1 RES     
    5276 O            0.7129    10.7803     1.1609 O             1 RES     
    5277 O            0.5999    13.3007     0.4782 O             1 RES     
    5278 O           -1.6374    11.9185     1.0524 O             1 RES     
    5279 C           -1.1460    12.5716    -1.7698 C             1 RES     
    5280 H           -0.6437    13.5338    -1.6696 H             1 RES     
    5281 H           -2.1234    12.6197    -1.2898 H             1 RES     
    5282 C           -0.5932    10.9222    -3.5864 C             1 RES     
    5283 H            0.4679    11.0311    -3.3625 H             1 RES     
    5284 H           -1.0118    10.1169    -2.9827 H             1 RES     
    5285 C           -1.3236    12.2388    -3.2629 C             1 RES     
    5286 H           -2.3847    12.1299    -3.4869 H             1 RES     
    5287 C            0.4732    11.3566    -5.4073 C             1 RES     
    5288 O            1.2081    11.9520    -4.6210 O             1 RES     
    5289 O           -0.7627    10.6044    -5.0117 O             1 RES     
    5290 C            0.6808    11.2756    -6.8198 C             1 RES     
    5291 H           -0.1750    11.7057    -7.3401 H             1 RES     
    5292 H            0.7901    10.2287    -7.1027 H             1 RES     
    5293 C            1.9565    12.0471    -7.2058 C             1 RES     
    5294 H            2.8123    11.6171    -6.6855 H             1 RES     
    5295 H            1.8472    13.0941    -6.9230 H             1 RES     
    5296 C            2.1774    11.9470    -8.7266 C             1 RES     
    5297 H            1.3216    12.3770    -9.2469 H             1 RES     
    5298 H            2.2867    10.9000    -9.0095 H             1 RES     
    5299 C            3.4531    12.7185    -9.1127 C             1 RES     
    5300 H            4.3089    12.2884    -8.5924 H             1 RES     
    5301 H            3.3438    13.7655    -8.8298 H             1 RES     
    5302 C            3.6740    12.6184   -10.6334 C             1 RES     
    5303 H            2.8182    13.0484   -11.1537 H             1 RES     
    5304 H            3.7833    11.5714   -10.9163 H             1 RES     
    5305 C            4.9497    13.3899   -11.0195 C             1 RES     
    5306 H            5.8055    12.9598   -10.4992 H             1 RES     
    5307 H            4.8404    14.4368   -10.7366 H             1 RES     
    5308 C            5.1706    13.2897   -12.5403 C             1 RES     
    5309 H            4.3148    13.7198   -13.0606 H             1 RES     
    5310 H            5.2799    12.2428   -12.8231 H             1 RES     
    5311 C            6.4463    14.0612   -12.9263 C             1 RES     
    5312 H            7.3021    13.6312   -12.4060 H             1 RES     
    5313 H            6.3370    15.1082   -12.6434 H             1 RES     
    5314 C            6.6672    13.9611   -14.4471 C             1 RES     
    5315 H            5.8114    14.3912   -14.9674 H             1 RES     
    5316 H            6.7765    12.9141   -14.7299 H             1 RES     
    5317 C            7.9429    14.7326   -14.8331 C             1 RES     
    5318 H            8.7987    14.3026   -14.3128 H             1 RES     
    5319 H            7.8336    15.7796   -14.5503 H             1 RES     
    5320 C            8.1638    14.6325   -16.3539 C             1 RES     
    5321 H            7.3080    15.0625   -16.8742 H             1 RES     
    5322 H            8.2731    13.5855   -16.6368 H             1 RES     
    5323 C            9.4395    15.4040   -16.7399 C             1 RES     
    5324 H           10.2953    14.9739   -16.2196 H             1 RES     
    5325 H            9.3302    16.4510   -16.4571 H             1 RES     
    5326 C            9.6604    15.3039   -18.2607 C             1 RES     
    5327 H            8.8046    15.7339   -18.7810 H             1 RES     
    5328 H            9.7697    14.2569   -18.5436 H             1 RES     
    5329 C           10.9361    16.0754   -18.6468 C             1 RES     
    5330 H           11.7919    15.6453   -18.1265 H             1 RES     
    5331 H           10.8268    17.1223   -18.3639 H             1 RES     
    5332 C           11.1570    15.9752   -20.1675 C             1 RES     
    5333 H           10.3012    16.4053   -20.6878 H             1 RES     
    5334 H           11.2663    14.9283   -20.4504 H             1 RES     
    5335 C           12.4327    16.7467   -20.5536 C             1 RES     
    5336 H           13.2885    16.3167   -20.0333 H             1 RES     
    5337 H           12.3234    17.7937   -20.2707 H             1 RES     
    5338 C           12.6436    16.6512   -22.0052 C             1 RES     
    5339 H           13.2236    15.7634   -21.8625 H             1 RES     
    5340 H           13.1010    17.2594   -22.7575 H             1 RES     
    5341 H           11.6538    16.3850   -22.3148 H             1 RES     
    5342 C           -1.2566    12.6744    -5.3317 C             1 RES     
    5343 O           -1.8845    11.6197    -5.4118 O             1 RES     
    5344 O           -0.7802    13.2841    -4.0467 O             1 RES     
    5345 C           -0.8880    13.4937    -6.4442 C             1 RES     
    5346 H            0.1968    13.5922    -6.4819 H             1 RES     
    5347 H           -1.3389    14.4788    -6.3239 H             1 RES     
    5348 C           -1.3909    12.8558    -7.7526 C             1 RES     
    5349 H           -2.4758    12.7573    -7.7149 H             1 RES     
    5350 H           -0.9401    11.8707    -7.8730 H             1 RES     
    5351 C           -0.9980    13.7489    -8.9441 C             1 RES     
    5352 H            0.0869    13.8473    -8.9817 H             1 RES     
    5353 H           -1.4488    14.7339    -8.8237 H             1 RES     
    5354 C           -1.5009    13.1110   -10.2525 C             1 RES     
    5355 H           -2.5857    13.0125   -10.2148 H             1 RES     
    5356 H           -1.0500    12.1259   -10.3728 H             1 RES     
    5357 C           -1.1079    14.0040   -11.4439 C             1 RES     
    5358 H           -0.0230    14.1025   -11.4816 H             1 RES     
    5359 H           -1.5587    14.9891   -11.3236 H             1 RES     
    5360 C           -1.6108    13.3661   -12.7523 C             1 RES     
    5361 H           -2.6957    13.2676   -12.7147 H             1 RES     
    5362 H           -1.1600    12.3811   -12.8727 H             1 RES     
    5363 C           -1.2178    14.2592   -13.9438 C             1 RES     
    5364 H           -0.1329    14.3577   -13.9815 H             1 RES     
    5365 H           -1.6686    15.2442   -13.8234 H             1 RES     
    5366 C           -1.7207    13.6213   -15.2522 C             1 RES     
    5367 H           -2.8056    13.5228   -15.2145 H             1 RES     
    5368 H           -1.2699    12.6362   -15.3725 H             1 RES     
    5369 C           -1.3278    14.5143   -16.4437 C             1 RES     
    5370 H           -0.2429    14.6128   -16.4813 H             1 RES     
    5371 H           -1.7786    15.4994   -16.3233 H             1 RES     
    5372 C           -1.8306    13.8765   -17.7520 C             1 RES     
    5373 H           -2.9155    13.7780   -17.7144 H             1 RES     
    5374 H           -1.3798    12.8914   -17.8724 H             1 RES     
    5375 C           -1.4377    14.7695   -18.9435 C             1 RES     
    5376 H           -0.3528    14.8680   -18.9812 H             1 RES     
    5377 H           -1.8885    15.7546   -18.8232 H             1 RES     
    5378 C           -1.9406    14.1316   -20.2519 C             1 RES     
    5379 H           -3.0254    14.0331   -20.2143 H             1 RES     
    5380 H           -1.4897    13.1465   -20.3723 H             1 RES     
    5381 C           -1.5476    15.0247   -21.4434 C             1 RES     
    5382 H           -0.4627    15.1231   -21.4811 H             1 RES     
    5383 H           -1.9984    16.0097   -21.3230 H             1 RES     
    5384 C           -2.0505    14.3868   -22.7518 C             1 RES     
    5385 H           -3.1354    14.2883   -22.7141 H             1 RES     
    5386 H           -1.5997    13.4017   -22.8721 H             1 RES     
    5387 C           -1.6575    15.2798   -23.9433 C             1 RES     
    5388 H           -0.5726    15.3783   -23.9809 H             1 RES     
    5389 H           -2.1083    16.2649   -23.8229 H             1 RES     
    5390 C           -2.1604    14.6419   -25.2516 C             1 RES     
    5391 H           -3.2453    14.5434   -25.2140 H             1 RES     
    5392 H           -1.7096    13.6569   -25.3720 H             1 RES     
    5393 C           -1.7853    15.4944   -26.3890 C             1 RES     
    5394 H           -2.7083    16.0272   -26.2940 H             1 RES     
    5395 H           -1.5664    15.3415   -27.4253 H             1 RES     
    5396 H           -0.9975    16.0618   -25.9378 H             1 RES     
    5397 N           38.3406    16.4317     5.0000 N             1 RES     
    5398 C           38.4344    17.8951     5.2164 C             1 RES     
    5399 H           39.3265    18.3275     4.7159 H             1 RES     
    5400 H           38.5310    18.1335     6.2997 H             1 RES     
    5401 H           37.5292    18.4153     4.8309 H             1 RES     
    5402 C           39.5736    15.7774     5.4991 C             1 RES     
    5403 H           39.5397    14.6781     5.3296 H             1 RES     
    5404 H           39.7046    15.9517     6.5909 H             1 RES     
    5405 H           40.4815    16.1803     5.0024 H             1 RES     
    5406 C           37.1904    15.9173     5.7821 C             1 RES     
    5407 H           37.3124    16.1279     6.8687 H             1 RES     
    5408 H           37.0839    14.8154     5.6630 H             1 RES     
    5409 H           36.2372    16.3894     5.4530 H             1 RES     
    5410 C           38.1003    16.1103     3.5602 C             1 RES     
    5411 H           37.1477    16.5751     3.2192 H             1 RES     
    5412 H           37.9894    15.0103     3.4280 H             1 RES     
    5413 C           39.1970    16.5707     2.5893 C             1 RES     
    5414 H           40.1701    16.0739     2.7771 H             1 RES     
    5415 H           39.3099    17.6731     2.5636 H             1 RES     
    5416 P           38.2551    17.3847     0.4251 P             1 RES     
    5417 O           38.0619    17.0192    -1.1206 O             1 RES     
    5418 O           39.0362    16.1979     1.1609 O             1 RES     
    5419 O           39.1367    18.7188     0.4782 O             1 RES     
    5420 O           36.7905    17.5308     1.0524 O             1 RES     
    5421 C           37.3354    18.1400    -1.7698 C             1 RES     
    5422 H           37.9173    19.0562    -1.6696 H             1 RES     
    5423 H           36.3656    18.2705    -1.2898 H             1 RES     
    5424 C           37.7468    16.4497    -3.5864 C             1 RES     
    5425 H           38.8133    16.4685    -3.3625 H             1 RES     
    5426 H           37.2616    15.6827    -2.9827 H             1 RES     
    5427 C           37.1303    17.8233    -3.2629 C             1 RES     
    5428 H           36.0638    17.8045    -3.4869 H             1 RES     
    5429 C           38.8461    16.7924    -5.4073 C             1 RES     
    5430 O           39.6287    17.3235    -4.6210 O             1 RES     
    5431 O           37.5510    16.1474    -5.0117 O             1 RES     
    5432 C           39.0461    16.6941    -6.8198 C             1 RES     
    5433 H           38.2297    17.1950    -7.3401 H             1 RES     
    5434 H           39.0665    15.6417    -7.1027 H             1 RES     
    5435 C           40.3825    17.3550    -7.2058 C             1 RES     
    5436 H           41.1989    16.8541    -6.6855 H             1 RES     
    5437 H           40.3621    18.4075    -6.9230 H             1 RES     
    5438 C           40.5941    17.2366    -8.7266 C             1 RES     
    5439 H           39.7777    17.7374    -9.2469 H             1 RES     
    5440 H           40.6145    16.1841    -9.0095 H             1 RES     
    5441 C           41.9305    17.8974    -9.1127 C             1 RES     
    5442 H           42.7469    17.3966    -8.5924 H             1 RES     
    5443 H           41.9101    18.9499    -8.8298 H             1 RES     
    5444 C           42.1421    17.7790   -10.6334 C             1 RES     
    5445 H           41.3257    18.2799   -11.1537 H             1 RES     
    5446 H           42.1625    16.7265   -10.9163 H             1 RES     
    5447 C           43.4785    18.4399   -11.0195 C             1 RES     
    5448 H           44.2949    17.9390   -10.4992 H             1 RES     
    5449 H           43.4581    19.4923   -10.7366 H             1 RES     
    5450 C           43.6901    18.3214   -12.5403 C             1 RES     
    5451 H           42.8737    18.8223   -13.0606 H             1 RES     
    5452 H           43.7105    17.2690   -12.8231 H             1 RES     
    5453 C           45.0265    18.9823   -12.9263 C             1 RES     
    5454 H           45.8429    18.4815   -12.4060 H             1 RES     
    5455 H           45.0061    20.0348   -12.6434 H             1 RES     
    5456 C           45.2381    18.8639   -14.4471 C             1 RES     
    5457 H           44.4217    19.3647   -14.9674 H             1 RES     
    5458 H           45.2585    17.8114   -14.7299 H             1 RES     
    5459 C           46.5745    19.5248   -14.8331 C             1 RES     
    5460 H           47.3909    19.0239   -14.3128 H             1 RES     
    5461 H           46.5541    20.5772   -14.5503 H             1 RES     
    5462 C           46.7861    19.4063   -16.3539 C             1 RES     
    5463 H           45.9697    19.9072   -16.8742 H             1 RES     
    5464 H           46.8065    18.3539   -16.6368 H             1 RES     
    5465 C           48.1225    20.0672   -16.7399 C             1 RES     
    5466 H           48.9389    19.5663   -16.2196 H             1 RES     
    5467 H           48.1021    21.1197   -16.4571 H             1 RES     
    5468 C           48.3341    19.9487   -18.2607 C             1 RES     
    5469 H           47.5177    20.4496   -18.7810 H             1 RES     
    5470 H           48.3545    18.8963   -18.5436 H             1 RES     
    5471 C           49.6705    20.6096   -18.6468 C             1 RES     
    5472 H           50.4869    20.1088   -18.1265 H             1 RES     
    5473 H           49.6501    21.6621   -18.3639 H             1 RES     
    5474 C           49.8821    20.4912   -20.1675 C             1 RES     
    5475 H           49.0657    20.9920   -20.6878 H             1 RES     
    5476 H           49.9025    19.4387   -20.4504 H             1 RES     
    5477 C           51.2185    21.1521   -20.5536 C             1 RES     
    5478 H           52.0349    20.6512   -20.0333 H             1 RES     
    5479 H           51.1981    22.2045   -20.2707 H             1 RES     
    5480 C           51.4205    21.0390   -22.0052 C             1 RES     
    5481 H           51.9235    20.1054   -21.8625 H             1 RES     
    5482 H           51.9278    21.6064   -22.7575 H             1 RES     
    5483 H           50.4118    20.8575   -22.3148 H             1 RES     
    5484 C           37.2339    18.2517    -5.3317 C             1 RES     
    5485 O           36.5191    17.2539    -5.4118 O             1 RES     
    5486 O           37.7601    18.8189    -4.0467 O             1 RES     
    5487 C           37.6704    19.0369    -6.4442 C             1 RES     
    5488 H           38.7597    19.0433    -6.4819 H             1 RES     
    5489 H           37.3045    20.0566    -6.3239 H             1 RES     
    5490 C           37.1154    18.4438    -7.7526 C             1 RES     
    5491 H           36.0261    18.4374    -7.7149 H             1 RES     
    5492 H           37.4813    17.4242    -7.8730 H             1 RES     
    5493 C           37.5824    19.3005    -8.9441 C             1 RES     
    5494 H           38.6718    19.3069    -8.9817 H             1 RES     
    5495 H           37.2165    20.3201    -8.8237 H             1 RES     
    5496 C           37.0274    18.7074   -10.2525 C             1 RES     
    5497 H           35.9381    18.7010   -10.2148 H             1 RES     
    5498 H           37.3933    17.6877   -10.3728 H             1 RES     
    5499 C           37.4945    19.5640   -11.4439 C             1 RES     
    5500 H           38.5838    19.5704   -11.4816 H             1 RES     
    5501 H           37.1286    20.5837   -11.3236 H             1 RES     
    5502 C           36.9395    18.9709   -12.7523 C             1 RES     
    5503 H           35.8501    18.9645   -12.7147 H             1 RES     
    5504 H           37.3054    17.9513   -12.8727 H             1 RES     
    5505 C           37.4065    19.8275   -13.9438 C             1 RES     
    5506 H           38.4959    19.8339   -13.9815 H             1 RES     
    5507 H           37.0406    20.8472   -13.8234 H             1 RES     
    5508 C           36.8515    19.2345   -15.2522 C             1 RES     
    5509 H           35.7622    19.2280   -15.2145 H             1 RES     
    5510 H           37.2174    18.2148   -15.3725 H             1 RES     
    5511 C           37.3186    20.0911   -16.4437 C             1 RES     
    5512 H           38.4079    20.0975   -16.4813 H             1 RES     
    5513 H           36.9527    21.1107   -16.3233 H             1 RES     
    5514 C           36.7635    19.4980   -17.7520 C             1 RES     
    5515 H           35.6742    19.4916   -17.7144 H             1 RES     
    5516 H           37.1295    18.4783   -17.8724 H             1 RES     
    5517 C           37.2306    20.3546   -18.9435 C             1 RES     
    5518 H           38.3199    20.3610   -18.9812 H             1 RES     
    5519 H           36.8647    21.3743   -18.8232 H             1 RES     
    5520 C           36.6756    19.7615   -20.2519 C             1 RES     
    5521 H           35.5863    19.7551   -20.2143 H             1 RES     
    5522 H           37.0415    18.7419   -20.3723 H             1 RES     
    5523 C           37.1426    20.6181   -21.4434 C             1 RES     
    5524 H           38.2320    20.6246   -21.4811 H             1 RES     
    5525 H           36.7767    21.6378   -21.3230 H             1 RES     
    5526 C           36.5876    20.0251   -22.7518 C             1 RES     
    5527 H           35.4983    20.0187   -22.7141 H             1 RES     
    5528 H           36.9535    19.0054   -22.8721 H             1 RES     
    5529 C           37.0547    20.8817   -23.9433 C             1 RES     
    5530 H           38.1440    20.8881   -23.9809 H             1 RES     
    5531 H           36.6888    21.9014   -23.8229 H             1 RES     
    5532 C           36.4997    20.2886   -25.2516 C             1 RES     
    5533 H           35.4103    20.2822   -25.2140 H             1 RES     
    5534 H           36.8656    19.2689   -25.3720 H             1 RES     
    5535 C           36.9455    21.1063   -26.3890 C             1 RES     
    5536 H           36.0709    21.7153   -26.2940 H             1 RES     
    5537 H           37.1508    20.9354   -27.4253 H             1 RES     
    5538 H           37.7785    21.6051   -25.9378 H             1 RES     
    5539 N           49.2950    32.8634     5.0000 N             1 RES     
    5540 C           49.5936    34.2991     5.2164 C             1 RES     
    5541 H           50.5376    34.6018     4.7159 H             1 RES     
    5542 H           49.7227    34.5215     6.2997 H             1 RES     
    5543 H           48.7705    34.9413     4.8309 H             1 RES     
    5544 C           50.4238    32.0423     5.4991 C             1 RES     
    5545 H           50.2357    30.9586     5.3296 H             1 RES     
    5546 H           50.5781    32.1964     6.5909 H             1 RES     
    5547 H           51.3794    32.3136     5.0024 H             1 RES     
    5548 C           48.0840    32.5157     5.7821 C             1 RES     
    5549 H           48.2344    32.7071     6.8687 H             1 RES     
    5550 H           47.8237    31.4397     5.6630 H             1 RES     
    5551 H           47.2066    33.1171     5.4530 H             1 RES     
    5552 C           49.0120    32.5789     3.5602 C             1 RES     
    5553 H           48.1341    33.1730     3.2192 H             1 RES     
    5554 H           48.7476    31.5054     3.4280 H             1 RES     
    5555 C           50.1625    32.8806     2.5893 C             1 RES     
    5556 H           51.0561    32.2519     2.7771 H             1 RES     
    5557 H           50.4292    33.9562     2.5636 H             1 RES     
    5558 P           49.3444    33.8189     0.4251 P             1 RES     
    5559 O           49.1017    33.4842    -1.1206 O             1 RES     
    5560 O           49.9509    32.5341     1.1609 O             1 RES     
    5561 O           50.4047    35.0159     0.4782 O             1 RES     
    5562 O           47.9148    34.1694     1.0524 O             1 RES     
    5563 C           48.5400    34.6960    -1.7698 C             1 RES     
    5564 H           49.2448    35.5213    -1.6696 H             1 RES     
    5565 H           47.5981    34.9615    -1.2898 H             1 RES     
    5566 C           48.7096    32.9646    -3.5864 C             1 RES     
    5567 H           49.7683    32.8333    -3.3625 H             1 RES     
    5568 H           48.1215    32.2735    -2.9827 H             1 RES     
    5569 C           48.2924    34.4113    -3.2629 C             1 RES     
    5570 H           47.2338    34.5426    -3.4869 H             1 RES     
    5571 C           49.8463    33.1494    -5.4073 C             1 RES     
    5572 O           50.6957    33.5653    -4.6210 O             1 RES     
    5573 O           48.4733    32.6929    -5.0117 O             1 RES     
    5574 C           50.0305    33.0240    -6.8198 C             1 RES     
    5575 H           49.2926    33.6347    -7.3401 H             1 RES     
    5576 H           49.9027    31.9792    -7.1027 H             1 RES     
    5577 C           51.4464    33.4905    -7.2058 C             1 RES     
    5578 H           52.1843    32.8799    -6.6855 H             1 RES     
    5579 H           51.5742    34.5354    -6.9230 H             1 RES     
    5580 C           51.6393    33.3435    -8.7266 C             1 RES     
    5581 H           50.9014    33.9542    -9.2469 H             1 RES     
    5582 H           51.5116    32.2986    -9.0095 H             1 RES     
    5583 C           53.0553    33.8100    -9.1127 C             1 RES     
    5584 H           53.7932    33.1994    -8.5924 H             1 RES     
    5585 H           53.1831    34.8549    -8.8298 H             1 RES     
    5586 C           53.2482    33.6630   -10.6334 C             1 RES     
    5587 H           52.5103    34.2736   -11.1537 H             1 RES     
    5588 H           53.1205    32.6181   -10.9163 H             1 RES     
    5589 C           54.6642    34.1295   -11.0195 C             1 RES     
    5590 H           55.4021    33.5188   -10.4992 H             1 RES     
    5591 H           54.7919    35.1744   -10.7366 H             1 RES     
    5592 C           54.8571    33.9825   -12.5403 C             1 RES     
    5593 H           54.1192    34.5931   -13.0606 H             1 RES     
    5594 H           54.7293    32.9376   -12.8231 H             1 RES     
    5595 C           56.2731    34.4490   -12.9263 C             1 RES     
    5596 H           57.0110    33.8383   -12.4060 H             1 RES     
    5597 H           56.4008    35.4938   -12.6434 H             1 RES     
    5598 C           56.4660    34.3019   -14.4471 C             1 RES     
    5599 H           55.7281    34.9126   -14.9674 H             1 RES     
    5600 H           56.3382    33.2571   -14.7299 H             1 RES     
    5601 C           57.8819    34.7684   -14.8331 C             1 RES     
    5602 H           58.6198    34.1578   -14.3128 H             1 RES     
    5603 H           58.0097    35.8133   -14.5503 H             1 RES     
    5604 C           58.0748    34.6214   -16.3539 C             1 RES     
    5605 H           57.3369    35.2321   -16.8742 H             1 RES     
    5606 H           57.9471    33.5765   -16.6368 H             1 RES     
    5607 C           59.4908    35.0879   -16.7399 C             1 RES     
    5608 H           60.2287    34.4773   -16.2196 H             1 RES     
    5609 H           59.6186    36.1328   -16.4571 H             1 RES     
    5610 C           59.6837    34.9409   -18.2607 C             1 RES     
    5611 H           58.9458    35.5515   -18.7810 H             1 RES     
    5612 H           59.5560    33.8960   -18.5436 H             1 RES     
    5613 C           61.0997    35.4074   -18.6468 C             1 RES     
    5614 H           61.8376    34.7968   -18.1265 H             1 RES     
    5615 H           61.2274    36.4523   -18.3639 H             1 RES     
    5616 C           61.2926    35.2604   -20.1675 C             1 RES     
    5617 H           60.5547    35.8710   -20.6878 H             1 RES     
    5618 H           61.1648    34.2155   -20.4504 H             1 RES     
    5619 C           62.7086    35.7269   -20.5536 C             1 RES     
    5620 H           63.4465    35.1162   -20.0333 H             1 RES     
    5621 H           62.8363    36.7717   -20.2707 H             1 RES     
    5622 C           62.8927    35.5865   -22.0052 C             1 RES     
    5623 H           63.2594    34.5915   -21.8625 H             1 RES     
    5624 H           63.4747    36.0770   -22.7575 H             1 RES     
    5625 H           61.8685    35.5486   -22.3148 H             1 RES     
    5626 C           48.4552    34.8208    -5.3317 C             1 RES     
    5627 O           47.6072    33.9334    -5.4118 O             1 RES     
    5628 O           49.0558    35.3085    -4.0467 O             1 RES     
    5629 C           48.9977    35.5369    -6.4442 C             1 RES     
    5630 H           50.0771    35.3902    -6.4819 H             1 RES     
    5631 H           48.7787    36.5979    -6.3239 H             1 RES     
    5632 C           48.3648    35.0277    -7.7526 C             1 RES     
    5633 H           47.2854    35.1745    -7.7149 H             1 RES     
    5634 H           48.5838    33.9668    -7.8730 H             1 RES     
    5635 C           48.9476    35.8102    -8.9441 C             1 RES     
    5636 H           50.0271    35.6635    -8.9817 H             1 RES     
    5637 H           48.7287    36.8712    -8.8237 H             1 RES     
    5638 C           48.3148    35.3010   -10.2525 C             1 RES     
    5639 H           47.2353    35.4478   -10.2148 H             1 RES     
    5640 H           48.5337    34.2401   -10.3728 H             1 RES     
    5641 C           48.8976    36.0835   -11.4439 C             1 RES     
    5642 H           49.9770    35.9367   -11.4816 H             1 RES     
    5643 H           48.6786    37.1445   -11.3236 H             1 RES     
    5644 C           48.2647    35.5743   -12.7523 C             1 RES     
    5645 H           47.1853    35.7211   -12.7147 H             1 RES     
    5646 H           48.4837    34.5133   -12.8727 H             1 RES     
    5647 C           48.8475    36.3568   -13.9438 C             1 RES     
    5648 H           49.9270    36.2100   -13.9815 H             1 RES     
    5649 H           48.6286    37.4178   -13.8234 H             1 RES     
    5650 C           48.2147    35.8476   -15.2522 C             1 RES     
    5651 H           47.1353    35.9944   -15.2145 H             1 RES     
    5652 H           48.4336    34.7866   -15.3725 H             1 RES     
    5653 C           48.7975    36.6301   -16.4437 C             1 RES     
    5654 H           49.8769    36.4833   -16.4813 H             1 RES     
    5655 H           48.5785    37.6910   -16.3233 H             1 RES     
    5656 C           48.1646    36.1209   -17.7520 C             1 RES     
    5657 H           47.0852    36.2676   -17.7144 H             1 RES     
    5658 H           48.3836    35.0599   -17.8724 H             1 RES     
    5659 C           48.7475    36.9034   -18.9435 C             1 RES     
    5660 H           49.8269    36.7566   -18.9812 H             1 RES     
    5661 H           48.5285    37.9643   -18.8232 H             1 RES     
    5662 C           48.1146    36.3942   -20.2519 C             1 RES     
    5663 H           47.0352    36.5409   -20.2143 H             1 RES     
    5664 H           48.3336    35.3332   -20.3723 H             1 RES     
    5665 C           48.6974    37.1766   -21.4434 C             1 RES     
    5666 H           49.7768    37.0299   -21.4811 H             1 RES     
    5667 H           48.4784    38.2376   -21.3230 H             1 RES     
    5668 C           48.0645    36.6675   -22.7518 C             1 RES     
    5669 H           46.9851    36.8142   -22.7141 H             1 RES     
    5670 H           48.2835    35.6065   -22.8721 H             1 RES     
    5671 C           48.6474    37.4499   -23.9433 C             1 RES     
    5672 H           49.7268    37.3032   -23.9809 H             1 RES     
    5673 H           48.4284    38.5109   -23.8229 H             1 RES     
    5674 C           48.0145    36.9407   -25.2516 C             1 RES     
    5675 H           46.9351    37.0875   -25.2140 H             1 RES     
    5676 H           48.2335    35.8798   -25.3720 H             1 RES     
    5677 C           48.5708    37.6876   -26.3890 C             1 RES     
    5678 H           47.7905    38.4135   -26.2940 H             1 RES     
    5679 H           48.7500    37.4897   -27.4253 H             1 RES     
    5680 H           49.4657    38.0644   -25.9378 H             1 RES     
    5681 N           43.8178    32.8634     5.0000 N             1 RES     
    5682 C           43.9919    34.3195     5.2164 C             1 RES     
    5683 H           44.9064    34.7021     4.7159 H             1 RES     
    5684 H           44.1014    34.5521     6.2997 H             1 RES     
    5685 H           43.1167    34.8886     4.8309 H             1 RES     
    5686 C           45.0130    32.1423     5.4991 C             1 RES     
    5687 H           44.9187    31.0465     5.3296 H             1 RES     
    5688 H           45.1534    32.3091     6.5909 H             1 RES     
    5689 H           45.9417    32.4947     5.0024 H             1 RES     
    5690 C           42.6411    32.4129     5.7821 C             1 RES     
    5691 H           42.7745    32.6166     6.8687 H             1 RES     
    5692 H           42.4742    31.3186     5.6630 H             1 RES     
    5693 H           41.7153    32.9367     5.4530 H             1 RES     
    5694 C           43.5602    32.5556     3.5602 C             1 RES     
    5695 H           42.6346    33.0721     3.2192 H             1 RES     
    5696 H           43.3891    31.4634     3.4280 H             1 RES     
    5697 C           44.6806    32.9551     2.5893 C             1 RES     
    5698 H           45.6249    32.4055     2.7771 H             1 RES     
    5699 H           44.8539    34.0496     2.5636 H             1 RES     
    5700 P           43.7848    33.8196     0.4251 P             1 RES     
    5701 O           43.5718    33.4653    -1.1206 O             1 RES     
    5702 O           44.4995    32.5917     1.1609 O             1 RES     
    5703 O           44.7384    35.1033     0.4782 O             1 RES     
    5704 O           42.3305    34.0460     1.0524 O             1 RES     
    5705 C           42.9081    34.6243    -1.7698 C             1 RES     
    5706 H           43.5394    35.5072    -1.6696 H             1 RES     
    5707 H           41.9468    34.8079    -1.2898 H             1 RES     
    5708 C           43.2259    32.9139    -3.5864 C             1 RES     
    5709 H           44.2919    32.8741    -3.3625 H             1 RES     
    5710 H           42.6993    32.1748    -2.9827 H             1 RES     
    5711 C           42.6859    34.3194    -3.2629 C             1 RES     
    5712 H           41.6199    34.3592    -3.4869 H             1 RES     
    5713 C           44.3424    33.1958    -5.4073 C             1 RES     
    5714 O           45.1530    33.6831    -4.6210 O             1 RES     
    5715 O           43.0138    32.6229    -5.0117 O             1 RES     
    5716 C           44.5367    33.0866    -6.8198 C             1 RES     
    5717 H           43.7491    33.6316    -7.3401 H             1 RES     
    5718 H           44.4992    32.0346    -7.1027 H             1 RES     
    5719 C           45.9074    33.6731    -7.2058 C             1 RES     
    5720 H           46.6950    33.1281    -6.6855 H             1 RES     
    5721 H           45.9449    34.7251    -6.9230 H             1 RES     
    5722 C           46.1122    33.5432    -8.7266 C             1 RES     
    5723 H           45.3245    34.0882    -9.2469 H             1 RES     
    5724 H           46.0747    32.4912    -9.0095 H             1 RES     
    5725 C           47.4828    34.1296    -9.1127 C             1 RES     
    5726 H           48.2705    33.5846    -8.5924 H             1 RES     
    5727 H           47.5203    35.1816    -8.8298 H             1 RES     
    5728 C           47.6877    33.9997   -10.6334 C             1 RES     
    5729 H           46.9000    34.5447   -11.1537 H             1 RES     
    5730 H           47.6502    32.9477   -10.9163 H             1 RES     
    5731 C           49.0583    34.5862   -11.0195 C             1 RES     
    5732 H           49.8460    34.0412   -10.4992 H             1 RES     
    5733 H           49.0958    35.6381   -10.7366 H             1 RES     
    5734 C           49.2631    34.4563   -12.5403 C             1 RES     
    5735 H           48.4755    35.0012   -13.0606 H             1 RES     
    5736 H           49.2256    33.4043   -12.8231 H             1 RES     
    5737 C           50.6338    35.0427   -12.9263 C             1 RES     
    5738 H           51.4214    34.4977   -12.4060 H             1 RES     
    5739 H           50.6713    36.0947   -12.6434 H             1 RES     
    5740 C           50.8386    34.9128   -14.4471 C             1 RES     
    5741 H           50.0510    35.4578   -14.9674 H             1 RES     
    5742 H           50.8011    33.8608   -14.7299 H             1 RES     
    5743 C           52.2093    35.4992   -14.8331 C             1 RES     
    5744 H           52.9969    34.9543   -14.3128 H             1 RES     
    5745 H           52.2468    36.5512   -14.5503 H             1 RES     
    5746 C           52.4141    35.3693   -16.3539 C             1 RES     
    5747 H           51.6264    35.9143   -16.8742 H             1 RES     
    5748 H           52.3766    34.3173   -16.6368 H             1 RES     
    5749 C           53.7847    35.9558   -16.7399 C             1 RES     
    5750 H           54.5724    35.4108   -16.2196 H             1 RES     
    5751 H           53.8222    37.0078   -16.4571 H             1 RES     
    5752 C           53.9896    35.8259   -18.2607 C             1 RES     
    5753 H           53.2019    36.3709   -18.7810 H             1 RES     
    5754 H           53.9521    34.7739   -18.5436 H             1 RES     
    5755 C           55.3602    36.4123   -18.6468 C             1 RES     
    5756 H           56.1479    35.8673   -18.1265 H             1 RES     
    5757 H           55.3977    37.4643   -18.3639 H             1 RES     
    5758 C           55.5650    36.2824   -20.1675 C             1 RES     
    5759 H           54.7774    36.8274   -20.6878 H             1 RES     
    5760 H           55.5275    35.2304   -20.4504 H             1 RES     
    5761 C           56.9357    36.8689   -20.5536 C             1 RES     
    5762 H           57.7233    36.3239   -20.0333 H             1 RES     
    5763 H           56.9732    37.9208   -20.2707 H             1 RES     
    5764 C           57.1312    36.7449   -22.0052 C             1 RES     
    5765 H           57.5821    35.7850   -21.8625 H             1 RES     
    5766 H           57.6688    37.2835   -22.7575 H             1 RES     
    5767 H           56.1140    36.6190   -22.3148 H             1 RES     
    5768 C           42.8128    34.7414    -5.3317 C             1 RES     
    5769 O           42.0443    33.7845    -5.4118 O             1 RES     
    5770 O           43.3694    35.2789    -4.0467 O             1 RES     
    5771 C           43.2918    35.5015    -6.4442 C             1 RES     
    5772 H           44.3799    35.4480    -6.4819 H             1 RES     
    5773 H           42.9825    36.5397    -6.3239 H             1 RES     
    5774 C           42.7050    34.9398    -7.7526 C             1 RES     
    5775 H           41.6170    34.9933    -7.7149 H             1 RES     
    5776 H           43.0144    33.9016    -7.8730 H             1 RES     
    5777 C           43.2185    35.7695    -8.9441 C             1 RES     
    5778 H           44.3065    35.7160    -8.9817 H             1 RES     
    5779 H           42.9092    36.8077    -8.8237 H             1 RES     
    5780 C           42.6317    35.2078   -10.2525 C             1 RES     
    5781 H           41.5437    35.2612   -10.2148 H             1 RES     
    5782 H           42.9410    34.1695   -10.3728 H             1 RES     
    5783 C           43.1451    36.0374   -11.4439 C             1 RES     
    5784 H           44.2332    35.9840   -11.4816 H             1 RES     
    5785 H           42.8358    37.0757   -11.3236 H             1 RES     
    5786 C           42.5584    35.4758   -12.7523 C             1 RES     
    5787 H           41.4703    35.5292   -12.7147 H             1 RES     
    5788 H           42.8677    34.4375   -12.8727 H             1 RES     
    5789 C           43.0718    36.3054   -13.9438 C             1 RES     
    5790 H           44.1598    36.2519   -13.9815 H             1 RES     
    5791 H           42.7625    37.3436   -13.8234 H             1 RES     
    5792 C           42.4850    35.7437   -15.2522 C             1 RES     
    5793 H           41.3970    35.7972   -15.2145 H             1 RES     
    5794 H           42.7943    34.7055   -15.3725 H             1 RES     
    5795 C           42.9984    36.5734   -16.4437 C             1 RES     
    5796 H           44.0865    36.5199   -16.4813 H             1 RES     
    5797 H           42.6891    37.6116   -16.3233 H             1 RES     
    5798 C           42.4117    36.0117   -17.7520 C             1 RES     
    5799 H           41.3236    36.0652   -17.7144 H             1 RES     
    5800 H           42.7210    34.9735   -17.8724 H             1 RES     
    5801 C           42.9251    36.8414   -18.9435 C             1 RES     
    5802 H           44.0131    36.7879   -18.9812 H             1 RES     
    5803 H           42.6158    37.8796   -18.8232 H             1 RES     
    5804 C           42.3383    36.2797   -20.2519 C             1 RES     
    5805 H           41.2503    36.3331   -20.2143 H             1 RES     
    5806 H           42.6477    35.2415   -20.3723 H             1 RES     
    5807 C           42.8518    37.1093   -21.4434 C             1 RES     
    5808 H           43.9398    37.0559   -21.4811 H             1 RES     
    5809 H           42.5424    38.1476   -21.3230 H             1 RES     
    5810 C           42.2650    36.5477   -22.7518 C             1 RES     
    5811 H           41.1770    36.6011   -22.7141 H             1 RES     
    5812 H           42.5743    35.5094   -22.8721 H             1 RES     
    5813 C           42.7784    37.3773   -23.9433 C             1 RES     
    5814 H           43.8665    37.3238   -23.9809 H             1 RES     
    5815 H           42.4691    38.4155   -23.8229 H             1 RES     
    5816 C           42.1916    36.8156   -25.2516 C             1 RES     
    5817 H           41.1036    36.8691   -25.2140 H             1 RES     
    5818 H           42.5010    35.7774   -25.3720 H             1 RES     
    5819 C           42.6817    37.6076   -26.3890 C             1 RES     
    5820 H           41.8419    38.2637   -26.2940 H             1 RES     
    5821 H           42.8773    37.4257   -27.4253 H             1 RES     
    5822 H           43.5409    38.0598   -25.9378 H             1 RES     
    5823 N            5.4772    21.9089     5.0000 N             1 RES     
    5824 C            5.4378    23.3748     5.2164 C             1 RES     
    5825 H            6.2870    23.8864     4.7159 H             1 RES     
    5826 H            5.5123    23.6210     6.2997 H             1 RES     
    5827 H            4.4891    23.8107     4.8309 H             1 RES     
    5828 C            6.7645    21.3693     5.4991 C             1 RES     
    5829 H            6.8306    20.2714     5.3296 H             1 RES     
    5830 H            6.8792    21.5547     6.5909 H             1 RES     
    5831 H            7.6321    21.8530     5.0024 H             1 RES     
    5832 C            4.3785    21.2922     5.7821 C             1 RES     
    5833 H            4.4809    21.5131     6.8687 H             1 RES     
    5834 H            4.3725    20.1852     5.6630 H             1 RES     
    5835 H            3.3864    21.6758     5.4530 H             1 RES     
    5836 C            5.2671    21.5670     3.5602 C             1 RES     
    5837 H            4.2762    21.9434     3.2192 H             1 RES     
    5838 H            5.2566    20.4615     3.4280 H             1 RES     
    5839 C            6.3175    22.1251     2.5893 C             1 RES     
    5840 H            7.3317    21.7186     2.7771 H             1 RES     
    5841 H            6.3299    23.2332     2.5636 H             1 RES     
    5842 P            5.3056    22.8502     0.4251 P             1 RES     
    5843 O            5.1463    22.4687    -1.1206 O             1 RES     
    5844 O            6.1912    21.7392     1.1609 O             1 RES     
    5845 O            6.0624    24.2589     0.4782 O             1 RES     
    5846 O            3.8338    22.8627     1.0524 O             1 RES     
    5847 C            4.3212    23.5189    -1.7698 C             1 RES     
    5848 H            4.8174    24.4842    -1.6696 H             1 RES     
    5849 H            3.3434    23.5608    -1.2898 H             1 RES     
    5850 C            4.8842    21.8729    -3.5864 C             1 RES     
    5851 H            5.9447    21.9885    -3.3625 H             1 RES     
    5852 H            4.4707    21.0651    -2.9827 H             1 RES     
    5853 C            4.1457    23.1849    -3.2629 C             1 RES     
    5854 H            3.0852    23.0694    -3.4869 H             1 RES     
    5855 C            5.9479    22.3140    -5.4073 C             1 RES     
    5856 O            6.6791    22.9140    -4.6210 O             1 RES     
    5857 O            4.7167    21.5541    -5.0117 O             1 RES     
    5858 C            6.1560    22.2343    -6.8198 C             1 RES     
    5859 H            5.2975    22.6590    -7.3401 H             1 RES     
    5860 H            6.2719    21.1881    -7.1027 H             1 RES     
    5861 C            7.4269    23.0138    -7.2058 C             1 RES     
    5862 H            8.2854    22.5891    -6.6855 H             1 RES     
    5863 H            7.3110    24.0601    -6.9230 H             1 RES     
    5864 C            7.6484    22.9151    -8.7266 C             1 RES     
    5865 H            6.7899    23.3397    -9.2469 H             1 RES     
    5866 H            7.7642    21.8688    -9.0095 H             1 RES     
    5867 C            8.9192    23.6945    -9.1127 C             1 RES     
    5868 H            9.7777    23.2698    -8.5924 H             1 RES     
    5869 H            8.8034    24.7408    -8.8298 H             1 RES     
    5870 C            9.1408    23.5958   -10.6334 C             1 RES     
    5871 H            8.2823    24.0205   -11.1537 H             1 RES     
    5872 H            9.2566    22.5495   -10.9163 H             1 RES     
    5873 C           10.4116    24.3752   -11.0195 C             1 RES     
    5874 H           11.2701    23.9506   -10.4992 H             1 RES     
    5875 H           10.2958    25.4215   -10.7366 H             1 RES     
    5876 C           10.6331    24.2765   -12.5403 C             1 RES     
    5877 H            9.7746    24.7012   -13.0606 H             1 RES     
    5878 H           10.7490    23.2302   -12.8231 H             1 RES     
    5879 C           11.9040    25.0560   -12.9263 C             1 RES     
    5880 H           12.7625    24.6313   -12.4060 H             1 RES     
    5881 H           11.7881    26.1022   -12.6434 H             1 RES     
    5882 C           12.1255    24.9572   -14.4471 C             1 RES     
    5883 H           11.2670    25.3819   -14.9674 H             1 RES     
    5884 H           12.2413    23.9110   -14.7299 H             1 RES     
    5885 C           13.3963    25.7367   -14.8331 C             1 RES     
    5886 H           14.2548    25.3120   -14.3128 H             1 RES     
    5887 H           13.2805    26.7830   -14.5503 H             1 RES     
    5888 C           13.6179    25.6379   -16.3539 C             1 RES     
    5889 H           12.7594    26.0626   -16.8742 H             1 RES     
    5890 H           13.7337    24.5917   -16.6368 H             1 RES     
    5891 C           14.8887    26.4174   -16.7399 C             1 RES     
    5892 H           15.7472    25.9927   -16.2196 H             1 RES     
    5893 H           14.7729    27.4637   -16.4571 H             1 RES     
    5894 C           15.1102    26.3187   -18.2607 C             1 RES     
    5895 H           14.2517    26.7434   -18.7810 H             1 RES     
    5896 H           15.2261    25.2724   -18.5436 H             1 RES     
    5897 C           16.3811    27.0981   -18.6468 C             1 RES     
    5898 H           17.2396    26.6735   -18.1265 H             1 RES     
    5899 H           16.2652    28.1444   -18.3639 H             1 RES     
    5900 C           16.6026    26.9994   -20.1675 C             1 RES     
    5901 H           15.7441    27.4241   -20.6878 H             1 RES     
    5902 H           16.7184    25.9531   -20.4504 H             1 RES     
    5903 C           17.8734    27.7789   -20.5536 C             1 RES     
    5904 H           18.7319    27.3542   -20.0333 H             1 RES     
    5905 H           17.7576    28.8251   -20.2707 H             1 RES     
    5906 C           18.0849    27.6846   -22.0052 C             1 RES     
    5907 H           18.6705    26.8005   -21.8625 H             1 RES     
    5908 H           18.5385    28.2957   -22.7575 H             1 RES     
    5909 H           17.0969    27.4122   -22.3148 H             1 RES     
    5910 C            4.2099    23.6209    -5.3317 C             1 RES     
    5911 O            3.5886    22.5624    -5.4118 O             1 RES     
    5912 O            4.6824    24.2336    -4.0467 O             1 RES     
    5913 C            4.5733    24.4425    -6.4442 C             1 RES     
    5914 H            5.6576    24.5478    -6.4819 H             1 RES     
    5915 H            4.1163    25.4248    -6.3239 H             1 RES     
    5916 C            4.0744    23.8015    -7.7526 C             1 RES     
    5917 H            2.9902    23.6963    -7.7149 H             1 RES     
    5918 H            4.5314    22.8193    -7.8730 H             1 RES     
    5919 C            4.4618    24.6970    -8.9441 C             1 RES     
    5920 H            5.5460    24.8023    -8.9817 H             1 RES     
    5921 H            4.0048    25.6792    -8.8237 H             1 RES     
    5922 C            3.9629    24.0560   -10.2525 C             1 RES     
    5923 H            2.8787    23.9507   -10.2148 H             1 RES     
    5924 H            4.4199    23.0738   -10.3728 H             1 RES     
    5925 C            4.3503    24.9515   -11.4439 C             1 RES     
    5926 H            5.4345    25.0568   -11.4816 H             1 RES     
    5927 H            3.8933    25.9337   -11.3236 H             1 RES     
    5928 C            3.8514    24.3105   -12.7523 C             1 RES     
    5929 H            2.7671    24.2052   -12.7147 H             1 RES     
    5930 H            4.3084    23.3282   -12.8727 H             1 RES     
    5931 C            4.2388    25.2059   -13.9438 C             1 RES     
    5932 H            5.3230    25.3112   -13.9815 H             1 RES     
    5933 H            3.7818    26.1882   -13.8234 H             1 RES     
    5934 C            3.7399    24.5649   -15.2522 C             1 RES     
    5935 H            2.6556    24.4597   -15.2145 H             1 RES     
    5936 H            4.1968    23.5827   -15.3725 H             1 RES     
    5937 C            4.1272    25.4604   -16.4437 C             1 RES     
    5938 H            5.2115    25.5657   -16.4813 H             1 RES     
    5939 H            3.6703    26.4426   -16.3233 H             1 RES     
    5940 C            3.6283    24.8194   -17.7520 C             1 RES     
    5941 H            2.5441    24.7141   -17.7144 H             1 RES     
    5942 H            4.0853    23.8372   -17.8724 H             1 RES     
    5943 C            4.0157    25.7149   -18.9435 C             1 RES     
    5944 H            5.1000    25.8202   -18.9812 H             1 RES     
    5945 H            3.5587    26.6971   -18.8232 H             1 RES     
    5946 C            3.5168    25.0739   -20.2519 C             1 RES     
    5947 H            2.4326    24.9686   -20.2143 H             1 RES     
    5948 H            3.9738    24.0916   -20.3723 H             1 RES     
    5949 C            3.9042    25.9693   -21.4434 C             1 RES     
    5950 H            4.9884    26.0746   -21.4811 H             1 RES     
    5951 H            3.4472    26.9516   -21.3230 H             1 RES     
    5952 C            3.4053    25.3283   -22.7518 C             1 RES     
    5953 H            2.3211    25.2231   -22.7141 H             1 RES     
    5954 H            3.8623    24.3461   -22.8721 H             1 RES     
    5955 C            3.7927    26.2238   -23.9433 C             1 RES     
    5956 H            4.8769    26.3291   -23.9809 H             1 RES     
    5957 H            3.3357    27.2060   -23.8229 H             1 RES     
    5958 C            3.2938    25.5828   -25.2516 C             1 RES     
    5959 H            2.2095    25.4775   -25.2140 H             1 RES     
    5960 H            3.7508    24.6006   -25.3720 H             1 RES     
    5961 C            3.6635    26.4376   -26.3890 C             1 RES     
    5962 H            2.7372    26.9646   -26.2940 H             1 RES     
    5963 H            3.8835    26.2861   -27.4253 H             1 RES     
    5964 H            4.4478    27.0099   -25.9378 H             1 RES     
    5965 N           32.8634    49.2950     5.0000 N             1 RES     
    5966 C           33.1045    50.7415     5.2164 C             1 RES     
    5967 H           34.0358    51.0815     4.7159 H             1 RES     
    5968 H           33.2247    50.9689     6.2997 H             1 RES     
    5969 H           32.2566    51.3505     4.8309 H             1 RES     
    5970 C           34.0239    48.5196     5.4991 C             1 RES     
    5971 H           33.8791    47.4292     5.3296 H             1 RES     
    5972 H           34.1719    48.6797     6.5909 H             1 RES     
    5973 H           34.9679    48.8287     5.0024 H             1 RES     
    5974 C           31.6671    48.8995     5.7821 C             1 RES     
    5975 H           31.8098    49.0967     6.8687 H             1 RES     
    5976 H           31.4498    47.8140     5.6630 H             1 RES     
    5977 H           30.7664    49.4655     5.4530 H             1 RES     
    5978 C           32.5918    48.9995     3.5602 C             1 RES     
    5979 H           31.6910    49.5582     3.2192 H             1 RES     
    5980 H           32.3704    47.9164     3.4280 H             1 RES     
    5981 C           33.7295    49.3468     2.5893 C             1 RES     
    5982 H           34.6474    48.7542     2.7771 H             1 RES     
    5983 H           33.9532    50.4322     2.5636 H             1 RES     
    5984 P           32.8746    50.2518     0.4251 P             1 RES     
    5985 O           32.6454    49.9077    -1.1206 O             1 RES     
    5986 O           33.5318    48.9921     1.1609 O             1 RES     
    5987 O           33.8865    51.4901     0.4782 O             1 RES     
    5988 O           31.4323    50.5451     1.0524 O             1 RES     
    5989 C           32.0360    51.0961    -1.7698 C             1 RES     
    5990 H           32.7074    51.9489    -1.6696 H             1 RES     
    5991 H           31.0842    51.3240    -1.2898 H             1 RES     
    5992 C           32.2744    49.3729    -3.5864 C             1 RES     
    5993 H           33.3374    49.2839    -3.3625 H             1 RES     
    5994 H           31.7143    48.6589    -2.9827 H             1 RES     
    5995 C           31.7999    50.8018    -3.2629 C             1 RES     
    5996 H           30.7369    50.8909    -3.4869 H             1 RES     
    5997 C           33.4028    49.6028    -5.4073 C             1 RES     
    5998 O           34.2350    50.0522    -4.6210 O             1 RES     
    5999 O           32.0491    49.0920    -5.0117 O             1 RES     
    6000 C           33.5918    49.4849    -6.8198 C             1 RES     
    6001 H           32.8302    50.0656    -7.3401 H             1 RES     
    6002 H           33.5057    48.4357    -7.1027 H             1 RES     
    6003 C           34.9881    50.0073    -7.2058 C             1 RES     
    6004 H           35.7497    49.4265    -6.6855 H             1 RES     
    6005 H           35.0742    51.0565    -6.9230 H             1 RES     
    6006 C           35.1867    49.8681    -8.7266 C             1 RES     
    6007 H           34.4251    50.4489    -9.2469 H             1 RES     
    6008 H           35.1006    48.8190    -9.0095 H             1 RES     
    6009 C           36.5830    50.3906    -9.1127 C             1 RES     
    6010 H           37.3446    49.8098    -8.5924 H             1 RES     
    6011 H           36.6691    51.4397    -8.8298 H             1 RES     
    6012 C           36.7816    50.2514   -10.6334 C             1 RES     
    6013 H           36.0200    50.8321   -11.1537 H             1 RES     
    6014 H           36.6955    49.2022   -10.9163 H             1 RES     
    6015 C           38.1779    50.7738   -11.0195 C             1 RES     
    6016 H           38.9395    50.1930   -10.4992 H             1 RES     
    6017 H           38.2639    51.8230   -10.7366 H             1 RES     
    6018 C           38.3765    50.6346   -12.5403 C             1 RES     
    6019 H           37.6149    51.2154   -13.0606 H             1 RES     
    6020 H           38.2904    49.5855   -12.8231 H             1 RES     
    6021 C           39.7728    51.1571   -12.9263 C             1 RES     
    6022 H           40.5344    50.5763   -12.4060 H             1 RES     
    6023 H           39.8588    52.2062   -12.6434 H             1 RES     
    6024 C           39.9714    51.0179   -14.4471 C             1 RES     
    6025 H           39.2097    51.5986   -14.9674 H             1 RES     
    6026 H           39.8853    49.9687   -14.7299 H             1 RES     
    6027 C           41.3676    51.5403   -14.8331 C             1 RES     
    6028 H           42.1293    50.9595   -14.3128 H             1 RES     
    6029 H           41.4537    52.5895   -14.5503 H             1 RES     
    6030 C           41.5663    51.4011   -16.3539 C             1 RES     
    6031 H           40.8046    51.9819   -16.8742 H             1 RES     
    6032 H           41.4802    50.3520   -16.6368 H             1 RES     
    6033 C           42.9625    51.9236   -16.7399 C             1 RES     
    6034 H           43.7242    51.3428   -16.2196 H             1 RES     
    6035 H           43.0486    52.9727   -16.4571 H             1 RES     
    6036 C           43.1611    51.7844   -18.2607 C             1 RES     
    6037 H           42.3995    52.3651   -18.7810 H             1 RES     
    6038 H           43.0751    50.7352   -18.5436 H             1 RES     
    6039 C           44.5574    52.3068   -18.6468 C             1 RES     
    6040 H           45.3190    51.7260   -18.1265 H             1 RES     
    6041 H           44.6435    53.3560   -18.3639 H             1 RES     
    6042 C           44.7560    52.1676   -20.1675 C             1 RES     
    6043 H           43.9944    52.7484   -20.6878 H             1 RES     
    6044 H           44.6699    51.1185   -20.4504 H             1 RES     
    6045 C           46.1523    52.6901   -20.5536 C             1 RES     
    6046 H           46.9139    52.1093   -20.0333 H             1 RES     
    6047 H           46.2384    53.7392   -20.2707 H             1 RES     
    6048 C           46.3419    52.5572   -22.0052 C             1 RES     
    6049 H           46.7479    51.5775   -21.8625 H             1 RES     
    6050 H           46.9039    53.0704   -22.7575 H             1 RES     
    6051 H           45.3200    52.4785   -22.3148 H             1 RES     
    6052 C           31.9462    51.2176    -5.3317 C             1 RES     
    6053 O           31.1343    50.2971    -5.4118 O             1 RES     
    6054 O           32.5271    51.7287    -4.0467 O             1 RES     
    6055 C           32.4598    51.9546    -6.4442 C             1 RES     
    6056 H           33.5442    51.8510    -6.4819 H             1 RES     
    6057 H           32.1988    53.0061    -6.3239 H             1 RES     
    6058 C           31.8477    51.4207    -7.7526 C             1 RES     
    6059 H           30.7633    51.5244    -7.7149 H             1 RES     
    6060 H           32.1088    50.3693    -7.8730 H             1 RES     
    6061 C           32.3990    52.2257    -8.9441 C             1 RES     
    6062 H           33.4834    52.1220    -8.9817 H             1 RES     
    6063 H           32.1379    53.2771    -8.8237 H             1 RES     
    6064 C           31.7869    51.6918   -10.2525 C             1 RES     
    6065 H           30.7025    51.7955   -10.2148 H             1 RES     
    6066 H           32.0479    50.6403   -10.3728 H             1 RES     
    6067 C           32.3381    52.4968   -11.4439 C             1 RES     
    6068 H           33.4225    52.3931   -11.4816 H             1 RES     
    6069 H           32.0771    53.5482   -11.3236 H             1 RES     
    6070 C           31.7260    51.9628   -12.7523 C             1 RES     
    6071 H           30.6416    52.0665   -12.7147 H             1 RES     
    6072 H           31.9870    50.9114   -12.8727 H             1 RES     
    6073 C           32.2772    52.7679   -13.9438 C             1 RES     
    6074 H           33.3616    52.6642   -13.9815 H             1 RES     
    6075 H           32.0162    53.8193   -13.8234 H             1 RES     
    6076 C           31.6651    52.2339   -15.2522 C             1 RES     
    6077 H           30.5807    52.3376   -15.2145 H             1 RES     
    6078 H           31.9261    51.1825   -15.3725 H             1 RES     
    6079 C           32.2163    53.0390   -16.4437 C             1 RES     
    6080 H           33.3007    52.9353   -16.4813 H             1 RES     
    6081 H           31.9553    54.0904   -16.3233 H             1 RES     
    6082 C           31.6042    52.5050   -17.7520 C             1 RES     
    6083 H           30.5198    52.6087   -17.7144 H             1 RES     
    6084 H           31.8652    51.4536   -17.8724 H             1 RES     
    6085 C           32.1554    53.3100   -18.9435 C             1 RES     
    6086 H           33.2398    53.2064   -18.9812 H             1 RES     
    6087 H           31.8944    54.3615   -18.8232 H             1 RES     
    6088 C           31.5433    52.7761   -20.2519 C             1 RES     
    6089 H           30.4589    52.8798   -20.2143 H             1 RES     
    6090 H           31.8044    51.7247   -20.3723 H             1 RES     
    6091 C           32.0946    53.5811   -21.4434 C             1 RES     
    6092 H           33.1790    53.4774   -21.4811 H             1 RES     
    6093 H           31.8335    54.6325   -21.3230 H             1 RES     
    6094 C           31.4825    53.0472   -22.7518 C             1 RES     
    6095 H           30.3980    53.1508   -22.7141 H             1 RES     
    6096 H           31.7435    51.9957   -22.8721 H             1 RES     
    6097 C           32.0337    53.8522   -23.9433 C             1 RES     
    6098 H           33.1181    53.7485   -23.9809 H             1 RES     
    6099 H           31.7727    54.9036   -23.8229 H             1 RES     
    6100 C           31.4216    53.3182   -25.2516 C             1 RES     
    6101 H           30.3372    53.4219   -25.2140 H             1 RES     
    6102 H           31.6826    52.2668   -25.3720 H             1 RES     
    6103 C           31.9477    54.0867   -26.3890 C             1 RES     
    6104 H           31.1391    54.7809   -26.2940 H             1 RES     
    6105 H           32.1347    53.8960   -27.4253 H             1 RES     
    6106 H           32.8269    54.4987   -25.9378 H             1 RES     
    6107 N           27.3861     5.4772     5.0000 N             1 RES     
    6108 C           27.8194     6.8782     5.2164 C             1 RES     
    6109 H           28.7879     7.0901     4.7159 H             1 RES     
    6110 H           27.9690     7.0874     6.2997 H             1 RES     
    6111 H           27.0609     7.5956     4.8309 H             1 RES     
    6112 C           28.4321     4.5529     5.4991 C             1 RES     
    6113 H           28.1421     3.4919     5.3296 H             1 RES     
    6114 H           28.6002     4.6917     6.5909 H             1 RES     
    6115 H           29.4090     4.7325     5.0024 H             1 RES     
    6116 C           26.1476     5.2459     5.7821 C             1 RES     
    6117 H           26.3155     5.4222     6.8687 H             1 RES     
    6118 H           25.7865     4.1994     5.6630 H             1 RES     
    6119 H           25.3311     5.9277     5.4530 H             1 RES     
    6120 C           27.0774     5.2209     3.5602 C             1 RES     
    6121 H           26.2598     5.8955     3.2192 H             1 RES     
    6122 H           26.7125     4.1772     3.4280 H             1 RES     
    6123 C           28.2513     5.4122     2.5893 C             1 RES     
    6124 H           29.0813     4.7017     2.7771 H             1 RES     
    6125 H           28.6188     6.4577     2.5636 H             1 RES     
    6126 P           27.5258     6.4238     0.4251 P             1 RES     
    6127 O           27.2525     6.1136    -1.1206 O             1 RES     
    6128 O           28.0078     5.0873     1.1609 O             1 RES     
    6129 O           28.6948     7.5150     0.4782 O             1 RES     
    6130 O           26.1359     6.9082     1.0524 O             1 RES     
    6131 C           26.8081     7.3731    -1.7698 C             1 RES     
    6132 H           27.5880     8.1280    -1.6696 H             1 RES     
    6133 H           25.8956     7.7267    -1.2898 H             1 RES     
    6134 C           26.8130     5.6335    -3.5864 C             1 RES     
    6135 H           27.8544     5.4025    -3.3625 H             1 RES     
    6136 H           26.1620     5.0012    -2.9827 H             1 RES     
    6137 C           26.5347     7.1132    -3.2629 C             1 RES     
    6138 H           25.4933     7.3442    -3.4869 H             1 RES     
    6139 C           27.9620     5.7098    -5.4073 C             1 RES     
    6140 O           28.8470     6.0433    -4.6210 O             1 RES     
    6141 O           26.5520     5.3854    -5.0117 O             1 RES     
    6142 C           28.1335     5.5675    -6.8198 C             1 RES     
    6143 H           27.4567     6.2453    -7.3401 H             1 RES     
    6144 H           27.9073     4.5394    -7.1027 H             1 RES     
    6145 C           29.5873     5.8977    -7.2058 C             1 RES     
    6146 H           30.2640     5.2199    -6.6855 H             1 RES     
    6147 H           29.8135     6.9258    -6.9230 H             1 RES     
    6148 C           29.7654     5.7331    -8.7266 C             1 RES     
    6149 H           29.0887     6.4109    -9.2469 H             1 RES     
    6150 H           29.5392     4.7050    -9.0095 H             1 RES     
    6151 C           31.2192     6.0633    -9.1127 C             1 RES     
    6152 H           31.8959     5.3855    -8.5924 H             1 RES     
    6153 H           31.4454     7.0914    -8.8298 H             1 RES     
    6154 C           31.3973     5.8987   -10.6334 C             1 RES     
    6155 H           30.7206     6.5765   -11.1537 H             1 RES     
    6156 H           31.1711     4.8706   -10.9163 H             1 RES     
    6157 C           32.8511     6.2289   -11.0195 C             1 RES     
    6158 H           33.5278     5.5511   -10.4992 H             1 RES     
    6159 H           33.0773     7.2570   -10.7366 H             1 RES     
    6160 C           33.0292     6.0643   -12.5403 C             1 RES     
    6161 H           32.3525     6.7421   -13.0606 H             1 RES     
    6162 H           32.8030     5.0362   -12.8231 H             1 RES     
    6163 C           34.4830     6.3945   -12.9263 C             1 RES     
    6164 H           35.1597     5.7167   -12.4060 H             1 RES     
    6165 H           34.7092     7.4226   -12.6434 H             1 RES     
    6166 C           34.6611     6.2299   -14.4471 C             1 RES     
    6167 H           33.9844     6.9077   -14.9674 H             1 RES     
    6168 H           34.4349     5.2018   -14.7299 H             1 RES     
    6169 C           36.1149     6.5601   -14.8331 C             1 RES     
    6170 H           36.7916     5.8823   -14.3128 H             1 RES     
    6171 H           36.3411     7.5882   -14.5503 H             1 RES     
    6172 C           36.2930     6.3955   -16.3539 C             1 RES     
    6173 H           35.6163     7.0733   -16.8742 H             1 RES     
    6174 H           36.0668     5.3674   -16.6368 H             1 RES     
    6175 C           37.7468     6.7257   -16.7399 C             1 RES     
    6176 H           38.4235     6.0479   -16.2196 H             1 RES     
    6177 H           37.9730     7.7538   -16.4571 H             1 RES     
    6178 C           37.9249     6.5611   -18.2607 C             1 RES     
    6179 H           37.2482     7.2389   -18.7810 H             1 RES     
    6180 H           37.6987     5.5330   -18.5436 H             1 RES     
    6181 C           39.3787     6.8913   -18.6468 C             1 RES     
    6182 H           40.0555     6.2135   -18.1265 H             1 RES     
    6183 H           39.6049     7.9194   -18.3639 H             1 RES     
    6184 C           39.5568     6.7267   -20.1675 C             1 RES     
    6185 H           38.8801     7.4045   -20.6878 H             1 RES     
    6186 H           39.3307     5.6986   -20.4504 H             1 RES     
    6187 C           41.0106     7.0569   -20.5536 C             1 RES     
    6188 H           41.6874     6.3791   -20.0333 H             1 RES     
    6189 H           41.2368     8.0850   -20.2707 H             1 RES     
    6190 C           41.1807     6.8997   -22.0052 C             1 RES     
    6191 H           41.4514     5.8745   -21.8625 H             1 RES     
    6192 H           41.8065     7.3329   -22.7575 H             1 RES     
    6193 H           40.1575     6.9590   -22.3148 H             1 RES     
    6194 C           26.7355     7.5055    -5.3317 C             1 RES     
    6195 O           25.8073     6.7024    -5.4118 O             1 RES     
    6196 O           27.3797     7.9340    -4.0467 O             1 RES     
    6197 C           27.3434     8.1669    -6.4442 C             1 RES     
    6198 H           28.4041     7.9186    -6.4819 H             1 RES     
    6199 H           27.2260     9.2439    -6.3239 H             1 RES     
    6200 C           26.6652     7.7200    -7.7526 C             1 RES     
    6201 H           25.6045     7.9684    -7.7149 H             1 RES     
    6202 H           26.7826     6.6431    -7.8730 H             1 RES     
    6203 C           27.3195     8.4437    -8.9441 C             1 RES     
    6204 H           28.3802     8.1954    -8.9817 H             1 RES     
    6205 H           27.2021     9.5207    -8.8237 H             1 RES     
    6206 C           26.6412     7.9968   -10.2525 C             1 RES     
    6207 H           25.5806     8.2452   -10.2148 H             1 RES     
    6208 H           26.7587     6.9199   -10.3728 H             1 RES     
    6209 C           27.2956     8.7205   -11.4439 C             1 RES     
    6210 H           28.3562     8.4722   -11.4816 H             1 RES     
    6211 H           27.1781     9.7975   -11.3236 H             1 RES     
    6212 C           26.6173     8.2736   -12.7523 C             1 RES     
    6213 H           25.5567     8.5220   -12.7147 H             1 RES     
    6214 H           26.7348     7.1967   -12.8727 H             1 RES     
    6215 C           27.2717     8.9973   -13.9438 C             1 RES     
    6216 H           28.3323     8.7490   -13.9815 H             1 RES     
    6217 H           27.1542    10.0743   -13.8234 H             1 RES     
    6218 C           26.5934     8.5504   -15.2522 C             1 RES     
    6219 H           25.5327     8.7988   -15.2145 H             1 RES     
    6220 H           26.7109     7.4735   -15.3725 H             1 RES     
    6221 C           27.2477     9.2741   -16.4437 C             1 RES     
    6222 H           28.3084     9.0258   -16.4813 H             1 RES     
    6223 H           27.1303    10.3511   -16.3233 H             1 RES     
    6224 C           26.5695     8.8272   -17.7520 C             1 RES     
    6225 H           25.5088     9.0756   -17.7144 H             1 RES     
    6226 H           26.6869     7.7503   -17.8724 H             1 RES     
    6227 C           27.2238     9.5509   -18.9435 C             1 RES     
    6228 H           28.2845     9.3026   -18.9812 H             1 RES     
    6229 H           27.1064    10.6279   -18.8232 H             1 RES     
    6230 C           26.5455     9.1040   -20.2519 C             1 RES     
    6231 H           25.4849     9.3524   -20.2143 H             1 RES     
    6232 H           26.6630     8.0271   -20.3723 H             1 RES     
    6233 C           27.1999     9.8277   -21.4434 C             1 RES     
    6234 H           28.2605     9.5794   -21.4811 H             1 RES     
    6235 H           27.0824    10.9047   -21.3230 H             1 RES     
    6236 C           26.5216     9.3808   -22.7518 C             1 RES     
    6237 H           25.4610     9.6292   -22.7141 H             1 RES     
    6238 H           26.6391     8.3039   -22.8721 H             1 RES     
    6239 C           27.1760    10.1045   -23.9433 C             1 RES     
    6240 H           28.2366     9.8562   -23.9809 H             1 RES     
    6241 H           27.0585    11.1815   -23.8229 H             1 RES     
    6242 C           26.4977     9.6576   -25.2516 C             1 RES     
    6243 H           25.4370     9.9060   -25.2140 H             1 RES     
    6244 H           26.6151     8.5807   -25.3720 H             1 RES     
    6245 C           27.1223    10.3484   -26.3890 C             1 RES     
    6246 H           26.4142    11.1450   -26.2940 H             1 RES     
    6247 H           27.2819    10.1343   -27.4253 H             1 RES     
    6248 H           28.0488    10.6387   -25.9378 H             1 RES     
    6249 N           16.4317    32.8634     5.0000 N             1 RES     
    6250 C           16.5697    34.3233     5.2164 C             1 RES     
    6251 H           17.4745    34.7285     4.7159 H             1 RES     
    6252 H           16.6734    34.5586     6.2997 H             1 RES     
    6253 H           15.6807    34.8706     4.8309 H             1 RES     
    6254 C           17.6443    32.1721     5.4991 C             1 RES     
    6255 H           17.5772    31.0743     5.3296 H             1 RES     
    6256 H           17.7806    32.3423     6.5909 H             1 RES     
    6257 H           18.5640    32.5474     5.0024 H             1 RES     
    6258 C           15.2665    32.3839     5.7821 C             1 RES     
    6259 H           15.3948    32.5908     6.8687 H             1 RES     
    6260 H           15.1267    31.2858     5.6630 H             1 RES     
    6261 H           14.3280    32.8847     5.4530 H             1 RES     
    6262 C           16.1818    32.5494     3.5602 C             1 RES     
    6263 H           15.2436    33.0428     3.2192 H             1 RES     
    6264 H           16.0377    31.4532     3.4280 H             1 RES     
    6265 C           17.2919    32.9764     2.5893 C             1 RES     
    6266 H           18.2495    32.4504     2.7771 H             1 RES     
    6267 H           17.4381    34.0749     2.5636 H             1 RES     
    6268 P           16.3751    33.8185     0.4251 P             1 RES     
    6269 O           16.1709    33.4590    -1.1206 O             1 RES     
    6270 O           17.1199    32.6086     1.1609 O             1 RES     
    6271 O           17.2966    35.1254     0.4782 O             1 RES     
    6272 O           14.9156    34.0088     1.0524 O             1 RES     
    6273 C           15.4787    34.6013    -1.7698 C             1 RES     
    6274 H           16.0879    35.4995    -1.6696 H             1 RES     
    6275 H           14.5132    34.7610    -1.2898 H             1 RES     
    6276 C           15.8387    32.8993    -3.5864 C             1 RES     
    6277 H           16.9053    32.8858    -3.3625 H             1 RES     
    6278 H           15.3306    32.1474    -2.9827 H             1 RES     
    6279 C           15.2641    34.2910    -3.2629 C             1 RES     
    6280 H           14.1974    34.3044    -3.4869 H             1 RES     
    6281 C           16.9479    33.2086    -5.4073 C             1 RES     
    6282 O           17.7462    33.7159    -4.6210 O             1 RES     
    6283 O           15.6338    32.6031    -5.0117 O             1 RES     
    6284 C           17.1448    33.1044    -6.8198 C             1 RES     
    6285 H           16.3439    33.6297    -7.3401 H             1 RES     
    6286 H           17.1334    32.0518    -7.1027 H             1 RES     
    6287 C           18.5006    33.7245    -7.2058 C             1 RES     
    6288 H           19.3014    33.1992    -6.6855 H             1 RES     
    6289 H           18.5120    34.7771    -6.9230 H             1 RES     
    6290 C           18.7085    33.5997    -8.7266 C             1 RES     
    6291 H           17.9076    34.1251    -9.2469 H             1 RES     
    6292 H           18.6971    32.5471    -9.0095 H             1 RES     
    6293 C           20.0643    34.2199    -9.1127 C             1 RES     
    6294 H           20.8651    33.6946    -8.5924 H             1 RES     
    6295 H           20.0757    35.2725    -8.8298 H             1 RES     
    6296 C           20.2722    34.0951   -10.6334 C             1 RES     
    6297 H           19.4713    34.6204   -11.1537 H             1 RES     
    6298 H           20.2608    33.0425   -10.9163 H             1 RES     
    6299 C           21.6280    34.7153   -11.0195 C             1 RES     
    6300 H           22.4288    34.1899   -10.4992 H             1 RES     
    6301 H           21.6394    35.7679   -10.7366 H             1 RES     
    6302 C           21.8359    34.5905   -12.5403 C             1 RES     
    6303 H           21.0350    35.1158   -13.0606 H             1 RES     
    6304 H           21.8245    33.5379   -12.8231 H             1 RES     
    6305 C           23.1917    35.2106   -12.9263 C             1 RES     
    6306 H           23.9925    34.6853   -12.4060 H             1 RES     
    6307 H           23.2031    36.2632   -12.6434 H             1 RES     
    6308 C           23.3996    35.0859   -14.4471 C             1 RES     
    6309 H           22.5987    35.6112   -14.9674 H             1 RES     
    6310 H           23.3882    34.0333   -14.7299 H             1 RES     
    6311 C           24.7553    35.7060   -14.8331 C             1 RES     
    6312 H           25.5562    35.1807   -14.3128 H             1 RES     
    6313 H           24.7668    36.7586   -14.5503 H             1 RES     
    6314 C           24.9633    35.5812   -16.3539 C             1 RES     
    6315 H           24.1624    36.1066   -16.8742 H             1 RES     
    6316 H           24.9519    34.5286   -16.6368 H             1 RES     
    6317 C           26.3190    36.2014   -16.7399 C             1 RES     
    6318 H           27.1199    35.6761   -16.2196 H             1 RES     
    6319 H           26.3305    37.2540   -16.4571 H             1 RES     
    6320 C           26.5270    36.0766   -18.2607 C             1 RES     
    6321 H           25.7261    36.6019   -18.7810 H             1 RES     
    6322 H           26.5156    35.0240   -18.5436 H             1 RES     
    6323 C           27.8827    36.6968   -18.6468 C             1 RES     
    6324 H           28.6836    36.1714   -18.1265 H             1 RES     
    6325 H           27.8942    37.7494   -18.3639 H             1 RES     
    6326 C           28.0907    36.5720   -20.1675 C             1 RES     
    6327 H           27.2898    37.0973   -20.6878 H             1 RES     
    6328 H           28.0793    35.5194   -20.4504 H             1 RES     
    6329 C           29.4464    37.1921   -20.5536 C             1 RES     
    6330 H           30.2473    36.6668   -20.0333 H             1 RES     
    6331 H           29.4579    38.2447   -20.2707 H             1 RES     
    6332 C           29.6450    37.0730   -22.0052 C             1 RES     
    6333 H           30.1194    36.1247   -21.8625 H             1 RES     
    6334 H           30.1691    37.6248   -22.7575 H             1 RES     
    6335 H           28.6312    36.9221   -22.3148 H             1 RES     
    6336 C           15.3806    34.7160    -5.3317 C             1 RES     
    6337 O           14.6359    33.7403    -5.4118 O             1 RES     
    6338 O           15.9237    35.2671    -4.0467 O             1 RES     
    6339 C           15.8406    35.4877    -6.4442 C             1 RES     
    6340 H           16.9296    35.4611    -6.4819 H             1 RES     
    6341 H           15.5057    36.5179    -6.3239 H             1 RES     
    6342 C           15.2679    34.9116    -7.7526 C             1 RES     
    6343 H           14.1789    34.9382    -7.7149 H             1 RES     
    6344 H           15.6028    33.8814    -7.8730 H             1 RES     
    6345 C           15.7606    35.7537    -8.9441 C             1 RES     
    6346 H           16.8497    35.7272    -8.9817 H             1 RES     
    6347 H           15.4257    36.7840    -8.8237 H             1 RES     
    6348 C           15.1879    35.1777   -10.2525 C             1 RES     
    6349 H           14.0989    35.2043   -10.2148 H             1 RES     
    6350 H           15.5229    34.1475   -10.3728 H             1 RES     
    6351 C           15.6807    36.0198   -11.4439 C             1 RES     
    6352 H           16.7697    35.9933   -11.4816 H             1 RES     
    6353 H           15.3458    37.0501   -11.3236 H             1 RES     
    6354 C           15.1080    35.4438   -12.7523 C             1 RES     
    6355 H           14.0190    35.4703   -12.7147 H             1 RES     
    6356 H           15.4429    34.4135   -12.8727 H             1 RES     
    6357 C           15.6007    36.2859   -13.9438 C             1 RES     
    6358 H           16.6898    36.2594   -13.9815 H             1 RES     
    6359 H           15.2658    37.3162   -13.8234 H             1 RES     
    6360 C           15.0280    35.7099   -15.2522 C             1 RES     
    6361 H           13.9390    35.7364   -15.2145 H             1 RES     
    6362 H           15.3630    34.6796   -15.3725 H             1 RES     
    6363 C           15.5208    36.5520   -16.4437 C             1 RES     
    6364 H           16.6098    36.5254   -16.4813 H             1 RES     
    6365 H           15.1859    37.5822   -16.3233 H             1 RES     
    6366 C           14.9481    35.9760   -17.7520 C             1 RES     
    6367 H           13.8591    36.0025   -17.7144 H             1 RES     
    6368 H           15.2830    34.9457   -17.8724 H             1 RES     
    6369 C           15.4408    36.8181   -18.9435 C             1 RES     
    6370 H           16.5299    36.7915   -18.9812 H             1 RES     
    6371 H           15.1059    37.8483   -18.8232 H             1 RES     
    6372 C           14.8681    36.2420   -20.2519 C             1 RES     
    6373 H           13.7791    36.2686   -20.2143 H             1 RES     
    6374 H           15.2031    35.2118   -20.3723 H             1 RES     
    6375 C           15.3609    37.0841   -21.4434 C             1 RES     
    6376 H           16.4499    37.0576   -21.4811 H             1 RES     
    6377 H           15.0260    38.1144   -21.3230 H             1 RES     
    6378 C           14.7882    36.5081   -22.7518 C             1 RES     
    6379 H           13.6992    36.5346   -22.7141 H             1 RES     
    6380 H           15.1231    35.4779   -22.8721 H             1 RES     
    6381 C           15.2809    37.3502   -23.9433 C             1 RES     
    6382 H           16.3700    37.3237   -23.9809 H             1 RES     
    6383 H           14.9460    38.3805   -23.8229 H             1 RES     
    6384 C           14.7082    36.7742   -25.2516 C             1 RES     
    6385 H           13.6192    36.8007   -25.2140 H             1 RES     
    6386 H           15.0432    35.7439   -25.3720 H             1 RES     
    6387 C           15.1786    37.5780   -26.3890 C             1 RES     
    6388 H           14.3228    38.2132   -26.2940 H             1 RES     
    6389 H           15.3786    37.4010   -27.4253 H             1 RES     
    6390 H           16.0263    38.0514   -25.9378 H             1 RES     
    6391 N           38.3406    27.3861     5.0000 N             1 RES     
    6392 C           38.6795    28.8129     5.2164 C             1 RES     
    6393 H           39.6317    29.0888     4.7159 H             1 RES     
    6394 H           38.8149    29.0316     6.2997 H             1 RES     
    6395 H           37.8749    29.4781     4.8309 H             1 RES     
    6396 C           39.4458    26.5336     5.4991 C             1 RES     
    6397 H           39.2272    25.4556     5.3296 H             1 RES     
    6398 H           39.6043    26.6833     6.5909 H             1 RES     
    6399 H           40.4086    26.7778     5.0024 H             1 RES     
    6400 C           37.1202    27.0728     5.7821 C             1 RES     
    6401 H           37.2760    27.2599     6.8687 H             1 RES     
    6402 H           36.8296    26.0046     5.6630 H             1 RES     
    6403 H           36.2601    27.6987     5.4530 H             1 RES     
    6404 C           38.0496    27.1098     3.5602 C             1 RES     
    6405 H           37.1889    27.7284     3.2192 H             1 RES     
    6406 H           37.7551    26.0441     3.4280 H             1 RES     
    6407 C           39.2082    27.3789     2.5893 C             1 RES     
    6408 H           40.0837    26.7253     2.7771 H             1 RES     
    6409 H           39.5051    28.4466     2.5636 H             1 RES     
    6410 P           38.4168    28.3399     0.4251 P             1 RES     
    6411 O           38.1648    28.0122    -1.1206 O             1 RES     
    6412 O           38.9869    27.0385     1.1609 O             1 RES     
    6413 O           39.5105    29.5065     0.4782 O             1 RES     
    6414 O           36.9978    28.7306     1.0524 O             1 RES     
    6415 C           37.6375    29.2393    -1.7698 C             1 RES     
    6416 H           38.3653    30.0445    -1.6696 H             1 RES     
    6417 H           36.7035    29.5313    -1.2898 H             1 RES     
    6418 C           37.7583    27.5039    -3.5864 C             1 RES     
    6419 H           38.8128    27.3428    -3.3625 H             1 RES     
    6420 H           37.1509    26.8296    -2.9827 H             1 RES     
    6421 C           37.3820    28.9617    -3.2629 C             1 RES     
    6422 H           36.3275    29.1228    -3.4869 H             1 RES     
    6423 C           38.8997    27.6566    -5.4073 C             1 RES     
    6424 O           39.7605    28.0483    -4.6210 O             1 RES     
    6425 O           37.5144    27.2389    -5.0117 O             1 RES     
    6426 C           39.0803    27.5260    -6.8198 C             1 RES     
    6427 H           38.3599    28.1572    -7.3401 H             1 RES     
    6428 H           38.9231    26.4852    -7.1027 H             1 RES     
    6429 C           40.5088    27.9524    -7.2058 C             1 RES     
    6430 H           41.2292    27.3212    -6.6855 H             1 RES     
    6431 H           40.6660    28.9932    -6.9230 H             1 RES     
    6432 C           40.6975    27.8000    -8.7266 C             1 RES     
    6433 H           39.9771    28.4312    -9.2469 H             1 RES     
    6434 H           40.5403    26.7591    -9.0095 H             1 RES     
    6435 C           42.1261    28.2263    -9.1127 C             1 RES     
    6436 H           42.8464    27.5951    -8.5924 H             1 RES     
    6437 H           42.2832    29.2672    -8.8298 H             1 RES     
    6438 C           42.3147    28.0739   -10.6334 C             1 RES     
    6439 H           41.5944    28.7052   -11.1537 H             1 RES     
    6440 H           42.1576    27.0331   -10.9163 H             1 RES     
    6441 C           43.7433    28.5003   -11.0195 C             1 RES     
    6442 H           44.4637    27.8691   -10.4992 H             1 RES     
    6443 H           43.9005    29.5412   -10.7366 H             1 RES     
    6444 C           43.9320    28.3479   -12.5403 C             1 RES     
    6445 H           43.2116    28.9791   -13.0606 H             1 RES     
    6446 H           43.7748    27.3071   -12.8231 H             1 RES     
    6447 C           45.3606    28.7743   -12.9263 C             1 RES     
    6448 H           46.0809    28.1431   -12.4060 H             1 RES     
    6449 H           45.5177    29.8151   -12.6434 H             1 RES     
    6450 C           45.5492    28.6219   -14.4471 C             1 RES     
    6451 H           44.8289    29.2531   -14.9674 H             1 RES     
    6452 H           45.3921    27.5810   -14.7299 H             1 RES     
    6453 C           46.9778    29.0483   -14.8331 C             1 RES     
    6454 H           47.6982    28.4170   -14.3128 H             1 RES     
    6455 H           47.1350    30.0891   -14.5503 H             1 RES     
    6456 C           47.1665    28.8959   -16.3539 C             1 RES     
    6457 H           46.4461    29.5271   -16.8742 H             1 RES     
    6458 H           47.0093    27.8550   -16.6368 H             1 RES     
    6459 C           48.5950    29.3222   -16.7399 C             1 RES     
    6460 H           49.3154    28.6910   -16.2196 H             1 RES     
    6461 H           48.7522    30.3631   -16.4571 H             1 RES     
    6462 C           48.7837    29.1698   -18.2607 C             1 RES     
    6463 H           48.0633    29.8010   -18.7810 H             1 RES     
    6464 H           48.6266    28.1290   -18.5436 H             1 RES     
    6465 C           50.2123    29.5962   -18.6468 C             1 RES     
    6466 H           50.9327    28.9650   -18.1265 H             1 RES     
    6467 H           50.3695    30.6371   -18.3639 H             1 RES     
    6468 C           50.4010    29.4438   -20.1675 C             1 RES     
    6469 H           49.6806    30.0750   -20.6878 H             1 RES     
    6470 H           50.2438    28.4029   -20.4504 H             1 RES     
    6471 C           51.8295    29.8702   -20.5536 C             1 RES     
    6472 H           52.5499    29.2390   -20.0333 H             1 RES     
    6473 H           51.9867    30.9110   -20.2707 H             1 RES     
    6474 C           52.0097    29.7247   -22.0052 C             1 RES     
    6475 H           52.3482    28.7197   -21.8625 H             1 RES     
    6476 H           52.6052    30.1986   -22.7575 H             1 RES     
    6477 H           50.9848    29.7156   -22.3148 H             1 RES     
    6478 C           37.5563    29.3665    -5.3317 C             1 RES     
    6479 O           36.6836    28.5034    -5.4118 O             1 RES     
    6480 O           38.1705    29.8371    -4.0467 O             1 RES     
    6481 C           38.1188    30.0670    -6.4442 C             1 RES     
    6482 H           39.1936    29.8899    -6.4819 H             1 RES     
    6483 H           37.9298    31.1337    -6.3239 H             1 RES     
    6484 C           37.4718    29.5759    -7.7526 C             1 RES     
    6485 H           36.3969    29.7530    -7.7149 H             1 RES     
    6486 H           37.6607    28.5092    -7.8730 H             1 RES     
    6487 C           38.0764    30.3416    -8.9441 C             1 RES     
    6488 H           39.1513    30.1645    -8.9817 H             1 RES     
    6489 H           37.8875    31.4083    -8.8237 H             1 RES     
    6490 C           37.4295    29.8505   -10.2525 C             1 RES     
    6491 H           36.3546    30.0276   -10.2148 H             1 RES     
    6492 H           37.6184    28.7838   -10.3728 H             1 RES     
    6493 C           38.0341    30.6162   -11.4439 C             1 RES     
    6494 H           39.1090    30.4391   -11.4816 H             1 RES     
    6495 H           37.8452    31.6829   -11.3236 H             1 RES     
    6496 C           37.3871    30.1251   -12.7523 C             1 RES     
    6497 H           36.3123    30.3022   -12.7147 H             1 RES     
    6498 H           37.5761    29.0583   -12.8727 H             1 RES     
    6499 C           37.9918    30.8908   -13.9438 C             1 RES     
    6500 H           39.0667    30.7136   -13.9815 H             1 RES     
    6501 H           37.8028    31.9575   -13.8234 H             1 RES     
    6502 C           37.3448    30.3997   -15.2522 C             1 RES     
    6503 H           36.2700    30.5768   -15.2145 H             1 RES     
    6504 H           37.5338    29.3329   -15.3725 H             1 RES     
    6505 C           37.9495    31.1654   -16.4437 C             1 RES     
    6506 H           39.0243    30.9882   -16.4813 H             1 RES     
    6507 H           37.7605    32.2321   -16.3233 H             1 RES     
    6508 C           37.3025    30.6743   -17.7520 C             1 RES     
    6509 H           36.2277    30.8514   -17.7144 H             1 RES     
    6510 H           37.4915    29.6075   -17.8724 H             1 RES     
    6511 C           37.9072    31.4400   -18.9435 C             1 RES     
    6512 H           38.9820    31.2628   -18.9812 H             1 RES     
    6513 H           37.7182    32.5067   -18.8232 H             1 RES     
    6514 C           37.2602    30.9488   -20.2519 C             1 RES     
    6515 H           36.1853    31.1260   -20.2143 H             1 RES     
    6516 H           37.4491    29.8821   -20.3723 H             1 RES     
    6517 C           37.8649    31.7146   -21.4434 C             1 RES     
    6518 H           38.9397    31.5374   -21.4811 H             1 RES     
    6519 H           37.6759    32.7813   -21.3230 H             1 RES     
    6520 C           37.2179    31.2234   -22.7518 C             1 RES     
    6521 H           36.1430    31.4006   -22.7141 H             1 RES     
    6522 H           37.4068    30.1567   -22.8721 H             1 RES     
    6523 C           37.8225    31.9891   -23.9433 C             1 RES     
    6524 H           38.8974    31.8120   -23.9809 H             1 RES     
    6525 H           37.6336    33.0559   -23.8229 H             1 RES     
    6526 C           37.1756    31.4980   -25.2516 C             1 RES     
    6527 H           36.1007    31.6752   -25.2140 H             1 RES     
    6528 H           37.3645    30.4313   -25.3720 H             1 RES     
    6529 C           37.7527    32.2289   -26.3890 C             1 RES     
    6530 H           36.9931    32.9765   -26.2940 H             1 RES     
    6531 H           37.9263    32.0260   -27.4253 H             1 RES     
    6532 H           38.6579    32.5803   -25.9378 H             1 RES     
    6533 N           49.2950    49.2950     5.0000 N             1 RES     
    6534 C           49.3098    50.7614     5.2164 C             1 RES     
    6535 H           50.1773    51.2413     4.7159 H             1 RES     
    6536 H           49.3934    51.0046     6.2997 H             1 RES     
    6537 H           48.3779    51.2320     4.8309 H             1 RES     
    6538 C           50.5615    48.7082     5.4991 C             1 RES     
    6539 H           50.5869    47.6086     5.3296 H             1 RES     
    6540 H           50.6830    48.8893     6.5909 H             1 RES     
    6541 H           51.4464    49.1595     5.0024 H             1 RES     
    6542 C           48.1743    48.7193     5.7821 C             1 RES     
    6543 H           48.2848    48.9363     6.8687 H             1 RES     
    6544 H           48.1273    47.6133     5.6630 H             1 RES     
    6545 H           47.1970    49.1393     5.4530 H             1 RES     
    6546 C           49.0724    48.9611     3.5602 C             1 RES     
    6547 H           48.0961    49.3739     3.2192 H             1 RES     
    6548 H           49.0211    47.8567     3.4280 H             1 RES     
    6549 C           50.1427    49.4800     2.5893 C             1 RES     
    6550 H           51.1412    49.0364     2.7771 H             1 RES     
    6551 H           50.1960    50.5869     2.5636 H             1 RES     
    6552 P           49.1583    50.2420     0.4251 P             1 RES     
    6553 O           48.9850    49.8667    -1.1206 O             1 RES     
    6554 O           50.0022    49.0991     1.1609 O             1 RES     
    6555 O           49.9666    51.6218     0.4782 O             1 RES     
    6556 O           47.6879    50.3089     1.0524 O             1 RES     
    6557 C           48.1992    50.9466    -1.7698 C             1 RES     
    6558 H           48.7308    51.8929    -1.6696 H             1 RES     
    6559 H           47.2237    51.0246    -1.2898 H             1 RES     
    6560 C           48.7011    49.2810    -3.5864 C             1 RES     
    6561 H           49.7651    49.3573    -3.3625 H             1 RES     
    6562 H           48.2580    48.4890    -2.9827 H             1 RES     
    6563 C           48.0115    50.6194    -3.2629 C             1 RES     
    6564 H           46.9475    50.5431    -3.4869 H             1 RES     
    6565 C           49.7804    49.6825    -5.4073 C             1 RES     
    6566 O           50.5332    50.2551    -4.6210 O             1 RES     
    6567 O           48.5219    48.9686    -5.0117 O             1 RES     
    6568 C           49.9854    49.5952    -6.8198 C             1 RES     
    6569 H           49.1432    50.0513    -7.3401 H             1 RES     
    6570 H           50.0625    48.5453    -7.1027 H             1 RES     
    6571 C           51.2842    50.3271    -7.2058 C             1 RES     
    6572 H           52.1264    49.8710    -6.6855 H             1 RES     
    6573 H           51.2071    51.3770    -6.9230 H             1 RES     
    6574 C           51.5019    50.2203    -8.7266 C             1 RES     
    6575 H           50.6597    50.6764    -9.2469 H             1 RES     
    6576 H           51.5790    49.1705    -9.0095 H             1 RES     
    6577 C           52.8007    50.9523    -9.1127 C             1 RES     
    6578 H           53.6429    50.4962    -8.5924 H             1 RES     
    6579 H           52.7236    52.0021    -8.8298 H             1 RES     
    6580 C           53.0184    50.8454   -10.6334 C             1 RES     
    6581 H           52.1762    51.3015   -11.1537 H             1 RES     
    6582 H           53.0955    49.7956   -10.9163 H             1 RES     
    6583 C           54.3172    51.5774   -11.0195 C             1 RES     
    6584 H           55.1594    51.1213   -10.4992 H             1 RES     
    6585 H           54.2401    52.6272   -10.7366 H             1 RES     
    6586 C           54.5349    51.4705   -12.5403 C             1 RES     
    6587 H           53.6927    51.9266   -13.0606 H             1 RES     
    6588 H           54.6120    50.4207   -12.8231 H             1 RES     
    6589 C           55.8336    52.2025   -12.9263 C             1 RES     
    6590 H           56.6759    51.7464   -12.4060 H             1 RES     
    6591 H           55.7566    53.2524   -12.6434 H             1 RES     
    6592 C           56.0514    52.0957   -14.4471 C             1 RES     
    6593 H           55.2092    52.5518   -14.9674 H             1 RES     
    6594 H           56.1285    51.0458   -14.7299 H             1 RES     
    6595 C           57.3501    52.8277   -14.8331 C             1 RES     
    6596 H           58.1924    52.3715   -14.3128 H             1 RES     
    6597 H           57.2730    53.8775   -14.5503 H             1 RES     
    6598 C           57.5679    52.7208   -16.3539 C             1 RES     
    6599 H           56.7257    53.1769   -16.8742 H             1 RES     
    6600 H           57.6450    51.6710   -16.6368 H             1 RES     
    6601 C           58.8666    53.4528   -16.7399 C             1 RES     
    6602 H           59.7089    52.9967   -16.2196 H             1 RES     
    6603 H           58.7895    54.5026   -16.4571 H             1 RES     
    6604 C           59.0844    53.3459   -18.2607 C             1 RES     
    6605 H           58.2421    53.8020   -18.7810 H             1 RES     
    6606 H           59.1615    52.2961   -18.5436 H             1 RES     
    6607 C           60.3831    54.0779   -18.6468 C             1 RES     
    6608 H           61.2254    53.6218   -18.1265 H             1 RES     
    6609 H           60.3060    55.1277   -18.3639 H             1 RES     
    6610 C           60.6009    53.9711   -20.1675 C             1 RES     
    6611 H           59.7586    54.4272   -20.6878 H             1 RES     
    6612 H           60.6780    52.9212   -20.4504 H             1 RES     
    6613 C           61.8996    54.7030   -20.5536 C             1 RES     
    6614 H           62.7419    54.2469   -20.0333 H             1 RES     
    6615 H           61.8225    55.7529   -20.2707 H             1 RES     
    6616 C           62.1075    54.6010   -22.0052 C             1 RES     
    6617 H           62.6600    53.6959   -21.8625 H             1 RES     
    6618 H           62.5834    55.1950   -22.7575 H             1 RES     
    6619 H           61.1100    54.3654   -22.3148 H             1 RES     
    6620 C           48.0918    51.0527    -5.3317 C             1 RES     
    6621 O           47.4319    50.0178    -5.4118 O             1 RES     
    6622 O           48.5867    51.6475    -4.0467 O             1 RES     
    6623 C           48.4853    51.8603    -6.4442 C             1 RES     
    6624 H           49.5727    51.9255    -6.4819 H             1 RES     
    6625 H           48.0650    52.8588    -6.3239 H             1 RES     
    6626 C           47.9631    51.2382    -7.7526 C             1 RES     
    6627 H           46.8757    51.1730    -7.7149 H             1 RES     
    6628 H           48.3835    50.2397    -7.8730 H             1 RES     
    6629 C           48.3833    52.1187    -8.9441 C             1 RES     
    6630 H           49.4707    52.1839    -8.9817 H             1 RES     
    6631 H           47.9629    53.1172    -8.8237 H             1 RES     
    6632 C           47.8611    51.4966   -10.2525 C             1 RES     
    6633 H           46.7737    51.4315   -10.2148 H             1 RES     
    6634 H           48.2814    50.4982   -10.3728 H             1 RES     
    6635 C           48.2812    52.3772   -11.4439 C             1 RES     
    6636 H           49.3686    52.4423   -11.4816 H             1 RES     
    6637 H           47.8609    53.3756   -11.3236 H             1 RES     
    6638 C           47.7590    51.7550   -12.7523 C             1 RES     
    6639 H           46.6716    51.6899   -12.7147 H             1 RES     
    6640 H           48.1794    50.7566   -12.8727 H             1 RES     
    6641 C           48.1792    52.6356   -13.9438 C             1 RES     
    6642 H           49.2666    52.7007   -13.9815 H             1 RES     
    6643 H           47.7588    53.6340   -13.8234 H             1 RES     
    6644 C           47.6570    52.0134   -15.2522 C             1 RES     
    6645 H           46.5696    51.9483   -15.2145 H             1 RES     
    6646 H           48.0773    51.0150   -15.3725 H             1 RES     
    6647 C           48.0772    52.8940   -16.4437 C             1 RES     
    6648 H           49.1646    52.9591   -16.4813 H             1 RES     
    6649 H           47.6568    53.8924   -16.3233 H             1 RES     
    6650 C           47.5549    52.2718   -17.7520 C             1 RES     
    6651 H           46.4675    52.2067   -17.7144 H             1 RES     
    6652 H           47.9753    51.2734   -17.8724 H             1 RES     
    6653 C           47.9751    53.1524   -18.9435 C             1 RES     
    6654 H           49.0625    53.2175   -18.9812 H             1 RES     
    6655 H           47.5547    54.1508   -18.8232 H             1 RES     
    6656 C           47.4529    52.5303   -20.2519 C             1 RES     
    6657 H           46.3655    52.4651   -20.2143 H             1 RES     
    6658 H           47.8733    51.5318   -20.3723 H             1 RES     
    6659 C           47.8731    53.4108   -21.4434 C             1 RES     
    6660 H           48.9605    53.4760   -21.4811 H             1 RES     
    6661 H           47.4527    54.4093   -21.3230 H             1 RES     
    6662 C           47.3508    52.7887   -22.7518 C             1 RES     
    6663 H           46.2634    52.7235   -22.7141 H             1 RES     
    6664 H           47.7712    51.7902   -22.8721 H             1 RES     
    6665 C           47.7710    53.6692   -23.9433 C             1 RES     
    6666 H           48.8584    53.7344   -23.9809 H             1 RES     
    6667 H           47.3507    54.6677   -23.8229 H             1 RES     
    6668 C           47.2488    53.0471   -25.2516 C             1 RES     
    6669 H           46.1614    52.9819   -25.2140 H             1 RES     
    6670 H           47.6692    52.0486   -25.3720 H             1 RES     
    6671 C           47.6499    53.8876   -26.3890 C             1 RES     
    6672 H           46.7437    54.4485   -26.2940 H             1 RES     
    6673 H           47.8641    53.7281   -27.4253 H             1 RES     
    6674 H           48.4548    54.4306   -25.9378 H             1 RES     
    6675 N           32.8634    27.3861     5.0000 N             1 RES     
    6676 C           33.1972    28.8141     5.2164 C             1 RES     
    6677 H           34.1484    29.0934     4.7159 H             1 RES     
    6678 H           33.3318    29.0332     6.2997 H             1 RES     
    6679 H           32.3902    29.4764     4.8309 H             1 RES     
    6680 C           33.9716    26.5375     5.4991 C             1 RES     
    6681 H           33.7569    25.4588     5.3296 H             1 RES     
    6682 H           34.1296    26.6878     6.5909 H             1 RES     
    6683 H           34.9335    26.7852     5.0024 H             1 RES     
    6684 C           31.6441    27.0684     5.7821 C             1 RES     
    6685 H           31.7992    27.2561     6.8687 H             1 RES     
    6686 H           31.3574    25.9992     5.6630 H             1 RES     
    6687 H           30.7818    27.6912     5.4530 H             1 RES     
    6688 C           32.5734    27.1087     3.5602 C             1 RES     
    6689 H           31.7104    27.7243     3.2192 H             1 RES     
    6690 H           32.2826    26.0421     3.4280 H             1 RES     
    6691 C           33.7310    27.3820     2.5893 C             1 RES     
    6692 H           34.6088    26.7315     2.7771 H             1 RES     
    6693 H           34.0241    28.4507     2.5636 H             1 RES     
    6694 P           32.9362    28.3402     0.4251 P             1 RES     
    6695 O           32.6853    28.0116    -1.1206 O             1 RES     
    6696 O           33.5109    27.0408     1.1609 O             1 RES     
    6697 O           34.0257    29.5107     0.4782 O             1 RES     
    6698 O           31.5157    28.7258     1.0524 O             1 RES     
    6699 C           32.1537    29.2368    -1.7698 C             1 RES     
    6700 H           32.8786    30.0446    -1.6696 H             1 RES     
    6701 H           31.2186    29.5254    -1.2898 H             1 RES     
    6702 C           32.2806    27.5018    -3.5864 C             1 RES     
    6703 H           33.3357    27.3445    -3.3625 H             1 RES     
    6704 H           31.6757    26.8253    -2.9827 H             1 RES     
    6705 C           31.8992    28.9583    -3.2629 C             1 RES     
    6706 H           30.8441    29.1156    -3.4869 H             1 RES     
    6707 C           33.4215    27.6586    -5.4073 C             1 RES     
    6708 O           34.2809    28.0534    -4.6210 O             1 RES     
    6709 O           32.0377    27.2359    -5.0117 O             1 RES     
    6710 C           33.6025    27.5286    -6.8198 C             1 RES     
    6711 H           32.8799    28.1573    -7.3401 H             1 RES     
    6712 H           33.4491    26.4872    -7.1027 H             1 RES     
    6713 C           35.0295    27.9601    -7.2058 C             1 RES     
    6714 H           35.7522    27.3315    -6.6855 H             1 RES     
    6715 H           35.1830    29.0015    -6.9230 H             1 RES     
    6716 C           35.2188    27.8084    -8.7266 C             1 RES     
    6717 H           34.4961    28.4370    -9.2469 H             1 RES     
    6718 H           35.0653    26.7670    -9.0095 H             1 RES     
    6719 C           36.6458    28.2399    -9.1127 C             1 RES     
    6720 H           37.3684    27.6112    -8.5924 H             1 RES     
    6721 H           36.7993    29.2813    -8.8298 H             1 RES     
    6722 C           36.8350    28.0881   -10.6334 C             1 RES     
    6723 H           36.1124    28.7168   -11.1537 H             1 RES     
    6724 H           36.6816    27.0467   -10.9163 H             1 RES     
    6725 C           38.2621    28.5196   -11.0195 C             1 RES     
    6726 H           38.9847    27.8910   -10.4992 H             1 RES     
    6727 H           38.4155    29.5610   -10.7366 H             1 RES     
    6728 C           38.4513    28.3679   -12.5403 C             1 RES     
    6729 H           37.7287    28.9965   -13.0606 H             1 RES     
    6730 H           38.2978    27.3265   -12.8231 H             1 RES     
    6731 C           39.8783    28.7994   -12.9263 C             1 RES     
    6732 H           40.6010    28.1707   -12.4060 H             1 RES     
    6733 H           40.0318    29.8408   -12.6434 H             1 RES     
    6734 C           40.0676    28.6476   -14.4471 C             1 RES     
    6735 H           39.3449    29.2763   -14.9674 H             1 RES     
    6736 H           39.9141    27.6062   -14.7299 H             1 RES     
    6737 C           41.4946    29.0791   -14.8331 C             1 RES     
    6738 H           42.2172    28.4505   -14.3128 H             1 RES     
    6739 H           41.6480    30.1205   -14.5503 H             1 RES     
    6740 C           41.6838    28.9274   -16.3539 C             1 RES     
    6741 H           40.9612    29.5560   -16.8742 H             1 RES     
    6742 H           41.5304    27.8860   -16.6368 H             1 RES     
    6743 C           43.1108    29.3589   -16.7399 C             1 RES     
    6744 H           43.8335    28.7302   -16.2196 H             1 RES     
    6745 H           43.2643    30.4003   -16.4571 H             1 RES     
    6746 C           43.3001    29.2071   -18.2607 C             1 RES     
    6747 H           42.5774    29.8358   -18.7810 H             1 RES     
    6748 H           43.1466    28.1657   -18.5436 H             1 RES     
    6749 C           44.7271    29.6386   -18.6468 C             1 RES     
    6750 H           45.4497    29.0100   -18.1265 H             1 RES     
    6751 H           44.8806    30.6800   -18.3639 H             1 RES     
    6752 C           44.9163    29.4869   -20.1675 C             1 RES     
    6753 H           44.1937    30.1155   -20.6878 H             1 RES     
    6754 H           44.7629    28.4455   -20.4504 H             1 RES     
    6755 C           46.3434    29.9184   -20.5536 C             1 RES     
    6756 H           47.0660    29.2897   -20.0333 H             1 RES     
    6757 H           46.4968    30.9598   -20.2707 H             1 RES     
    6758 C           46.5240    29.7735   -22.0052 C             1 RES     
    6759 H           46.8661    28.7698   -21.8625 H             1 RES     
    6760 H           47.1178    30.2495   -22.7575 H             1 RES     
    6761 H           45.4992    29.7608   -22.3148 H             1 RES     
    6762 C           32.0720    29.3637    -5.3317 C             1 RES     
    6763 O           31.2024    28.4975    -5.4118 O             1 RES     
    6764 O           32.6845    29.8364    -4.0467 O             1 RES     
    6765 C           32.6319    30.0662    -6.4442 C             1 RES     
    6766 H           33.7074    29.8929    -6.4819 H             1 RES     
    6767 H           32.4392    31.1323    -6.3239 H             1 RES     
    6768 C           31.9867    29.5728    -7.7526 C             1 RES     
    6769 H           30.9113    29.7461    -7.7149 H             1 RES     
    6770 H           32.1795    28.5067    -7.8730 H             1 RES     
    6771 C           32.5887    30.3406    -8.9441 C             1 RES     
    6772 H           33.6641    30.1673    -8.9817 H             1 RES     
    6773 H           32.3959    31.4067    -8.8237 H             1 RES     
    6774 C           31.9434    29.8472   -10.2525 C             1 RES     
    6775 H           30.8680    30.0205   -10.2148 H             1 RES     
    6776 H           32.1362    28.7812   -10.3728 H             1 RES     
    6777 C           32.5454    30.6151   -11.4439 C             1 RES     
    6778 H           33.6208    30.4418   -11.4816 H             1 RES     
    6779 H           32.3526    31.6811   -11.3236 H             1 RES     
    6780 C           31.9001    30.1216   -12.7523 C             1 RES     
    6781 H           30.8247    30.2950   -12.7147 H             1 RES     
    6782 H           32.0929    29.0556   -12.8727 H             1 RES     
    6783 C           32.5021    30.8895   -13.9438 C             1 RES     
    6784 H           33.5775    30.7162   -13.9815 H             1 RES     
    6785 H           32.3093    31.9556   -13.8234 H             1 RES     
    6786 C           31.8568    30.3961   -15.2522 C             1 RES     
    6787 H           30.7814    30.5694   -15.2145 H             1 RES     
    6788 H           32.0496    29.3300   -15.3725 H             1 RES     
    6789 C           32.4588    31.1640   -16.4437 C             1 RES     
    6790 H           33.5342    30.9907   -16.4813 H             1 RES     
    6791 H           32.2660    32.2300   -16.3233 H             1 RES     
    6792 C           31.8135    30.6705   -17.7520 C             1 RES     
    6793 H           30.7381    30.8438   -17.7144 H             1 RES     
    6794 H           32.0063    29.6045   -17.8724 H             1 RES     
    6795 C           32.4155    31.4384   -18.9435 C             1 RES     
    6796 H           33.4909    31.2651   -18.9812 H             1 RES     
    6797 H           32.2227    32.5044   -18.8232 H             1 RES     
    6798 C           31.7702    30.9450   -20.2519 C             1 RES     
    6799 H           30.6948    31.1183   -20.2143 H             1 RES     
    6800 H           31.9630    29.8789   -20.3723 H             1 RES     
    6801 C           32.3722    31.7128   -21.4434 C             1 RES     
    6802 H           33.4476    31.5395   -21.4811 H             1 RES     
    6803 H           32.1794    32.7789   -21.3230 H             1 RES     
    6804 C           31.7269    31.2194   -22.7518 C             1 RES     
    6805 H           30.6515    31.3927   -22.7141 H             1 RES     
    6806 H           31.9197    30.1533   -22.8721 H             1 RES     
    6807 C           32.3289    31.9873   -23.9433 C             1 RES     
    6808 H           33.4043    31.8140   -23.9809 H             1 RES     
    6809 H           32.1361    33.0533   -23.8229 H             1 RES     
    6810 C           31.6836    31.4938   -25.2516 C             1 RES     
    6811 H           30.6082    31.6671   -25.2140 H             1 RES     
    6812 H           31.8764    30.4278   -25.3720 H             1 RES     
    6813 C           32.2582    32.2268   -26.3890 C             1 RES     
    6814 H           31.4960    32.9717   -26.2940 H             1 RES     
    6815 H           32.4325    32.0244   -27.4253 H             1 RES     
    6816 H           33.1621    32.5814   -25.9378 H             1 RES     
    6817 N           38.3406    38.3406     5.0000 N             1 RES     
    6818 C           38.7242    39.7560     5.2164 C             1 RES     
    6819 H           39.6846    40.0018     4.7159 H             1 RES     
    6820 H           38.8663    39.9703     6.2997 H             1 RES     
    6821 H           37.9409    40.4461     4.8309 H             1 RES     
    6822 C           39.4184    37.4537     5.4991 C             1 RES     
    6823 H           39.1661    36.3832     5.3296 H             1 RES     
    6824 H           39.5816    37.5984     6.5909 H             1 RES     
    6825 H           40.3885    37.6676     5.0024 H             1 RES     
    6826 C           37.1109    38.0657     5.7821 C             1 RES     
    6827 H           37.2725    38.2479     6.8687 H             1 RES     
    6828 H           36.7870    37.0072     5.6630 H             1 RES     
    6829 H           36.2710    38.7184     5.4530 H             1 RES     
    6830 C           38.0411    38.0735     3.5602 C             1 RES     
    6831 H           37.2002    38.7189     3.2192 H             1 RES     
    6832 H           37.7132    37.0177     3.4280 H             1 RES     
    6833 C           39.2076    38.3061     2.5893 C             1 RES     
    6834 H           40.0621    37.6253     2.7771 H             1 RES     
    6835 H           39.5379    39.3639     2.5636 H             1 RES     
    6836 P           38.4468    39.2915     0.4251 P             1 RES     
    6837 O           38.1846    38.9719    -1.1206 O             1 RES     
    6838 O           38.9756    37.9728     1.1609 O             1 RES     
    6839 O           39.5766    40.4232     0.4782 O             1 RES     
    6840 O           37.0407    39.7266     1.0524 O             1 RES     
    6841 C           37.6961    40.2149    -1.7698 C             1 RES     
    6842 H           38.4489    40.9968    -1.6696 H             1 RES     
    6843 H           36.7717    40.5361    -1.2898 H             1 RES     
    6844 C           37.7623    38.4766    -3.5864 C             1 RES     
    6845 H           38.8112    38.2824    -3.3625 H             1 RES     
    6846 H           37.1340    37.8217    -2.9827 H             1 RES     
    6847 C           37.4320    39.9455    -3.2629 C             1 RES     
    6848 H           36.3831    40.1397    -3.4869 H             1 RES     
    6849 C           38.9079    38.5933    -5.4073 C             1 RES     
    6850 O           39.7806    38.9578    -4.6210 O             1 RES     
    6851 O           37.5102    38.2194    -5.0117 O             1 RES     
    6852 C           39.0843    38.4571    -6.8198 C             1 RES     
    6853 H           38.3841    39.1107    -7.3401 H             1 RES     
    6854 H           38.8945    37.4217    -7.1027 H             1 RES     
    6855 C           40.5255    38.8384    -7.2058 C             1 RES     
    6856 H           41.2257    38.1849    -6.6855 H             1 RES     
    6857 H           40.7154    39.8738    -6.9230 H             1 RES     
    6858 C           40.7093    38.6801    -8.7266 C             1 RES     
    6859 H           40.0091    39.3337    -9.2469 H             1 RES     
    6860 H           40.5195    37.6447    -9.0095 H             1 RES     
    6861 C           42.1506    39.0614    -9.1127 C             1 RES     
    6862 H           42.8508    38.4079    -8.5924 H             1 RES     
    6863 H           42.3404    40.0968    -8.8298 H             1 RES     
    6864 C           42.3344    38.9031   -10.6334 C             1 RES     
    6865 H           41.6342    39.5567   -11.1537 H             1 RES     
    6866 H           42.1446    37.8677   -10.9163 H             1 RES     
    6867 C           43.7757    39.2844   -11.0195 C             1 RES     
    6868 H           44.4759    38.6309   -10.4992 H             1 RES     
    6869 H           43.9655    40.3198   -10.7366 H             1 RES     
    6870 C           43.9595    39.1261   -12.5403 C             1 RES     
    6871 H           43.2593    39.7797   -13.0606 H             1 RES     
    6872 H           43.7696    38.0907   -12.8231 H             1 RES     
    6873 C           45.4007    39.5074   -12.9263 C             1 RES     
    6874 H           46.1009    38.8539   -12.4060 H             1 RES     
    6875 H           45.5905    40.5428   -12.6434 H             1 RES     
    6876 C           45.5845    39.3492   -14.4471 C             1 RES     
    6877 H           44.8843    40.0027   -14.9674 H             1 RES     
    6878 H           45.3947    38.3137   -14.7299 H             1 RES     
    6879 C           47.0258    39.7304   -14.8331 C             1 RES     
    6880 H           47.7260    39.0769   -14.3128 H             1 RES     
    6881 H           47.2156    40.7658   -14.5503 H             1 RES     
    6882 C           47.2096    39.5722   -16.3539 C             1 RES     
    6883 H           46.5094    40.2257   -16.8742 H             1 RES     
    6884 H           47.0198    38.5368   -16.6368 H             1 RES     
    6885 C           48.6508    39.9534   -16.7399 C             1 RES     
    6886 H           49.3510    39.2999   -16.2196 H             1 RES     
    6887 H           48.8407    40.9888   -16.4571 H             1 RES     
    6888 C           48.8346    39.7952   -18.2607 C             1 RES     
    6889 H           48.1344    40.4487   -18.7810 H             1 RES     
    6890 H           48.6448    38.7598   -18.5436 H             1 RES     
    6891 C           50.2759    40.1764   -18.6468 C             1 RES     
    6892 H           50.9761    39.5229   -18.1265 H             1 RES     
    6893 H           50.4657    41.2118   -18.3639 H             1 RES     
    6894 C           50.4597    40.0182   -20.1675 C             1 RES     
    6895 H           49.7595    40.6717   -20.6878 H             1 RES     
    6896 H           50.2699    38.9828   -20.4504 H             1 RES     
    6897 C           51.9010    40.3994   -20.5536 C             1 RES     
    6898 H           52.6011    39.7459   -20.0333 H             1 RES     
    6899 H           52.0908    41.4348   -20.2707 H             1 RES     
    6900 C           52.0764    40.2484   -22.0052 C             1 RES     
    6901 H           52.3832    39.2333   -21.8625 H             1 RES     
    6902 H           52.6866    40.7033   -22.7575 H             1 RES     
    6903 H           51.0518    40.2715   -22.3148 H             1 RES     
    6904 C           37.6189    40.3447    -5.3317 C             1 RES     
    6905 O           36.7196    39.5094    -5.4118 O             1 RES     
    6906 O           38.2476    40.7956    -4.0467 O             1 RES     
    6907 C           38.2031    41.0271    -6.4442 C             1 RES     
    6908 H           39.2719    40.8163    -6.4819 H             1 RES     
    6909 H           38.0478    42.0993    -6.3239 H             1 RES     
    6910 C           37.5410    40.5566    -7.7526 C             1 RES     
    6911 H           36.4723    40.7674    -7.7149 H             1 RES     
    6912 H           37.6964    39.4844    -7.8730 H             1 RES     
    6913 C           38.1695    41.3029    -8.9441 C             1 RES     
    6914 H           39.2382    41.0921    -8.9817 H             1 RES     
    6915 H           38.0141    42.3750    -8.8237 H             1 RES     
    6916 C           37.5074    40.8324   -10.2525 C             1 RES     
    6917 H           36.4386    41.0432   -10.2148 H             1 RES     
    6918 H           37.6627    39.7602   -10.3728 H             1 RES     
    6919 C           38.1358    41.5787   -11.4439 C             1 RES     
    6920 H           39.2045    41.3678   -11.4816 H             1 RES     
    6921 H           37.9805    42.6508   -11.3236 H             1 RES     
    6922 C           37.4737    41.1081   -12.7523 C             1 RES     
    6923 H           36.4050    41.3190   -12.7147 H             1 RES     
    6924 H           37.6290    40.0360   -12.8727 H             1 RES     
    6925 C           38.1021    41.8545   -13.9438 C             1 RES     
    6926 H           39.1709    41.6436   -13.9815 H             1 RES     
    6927 H           37.9468    42.9266   -13.8234 H             1 RES     
    6928 C           37.4400    41.3839   -15.2522 C             1 RES     
    6929 H           36.3713    41.5948   -15.2145 H             1 RES     
    6930 H           37.5954    40.3118   -15.3725 H             1 RES     
    6931 C           38.0685    42.1303   -16.4437 C             1 RES     
    6932 H           39.1372    41.9194   -16.4813 H             1 RES     
    6933 H           37.9131    43.2024   -16.3233 H             1 RES     
    6934 C           37.4064    41.6597   -17.7520 C             1 RES     
    6935 H           36.3376    41.8705   -17.7144 H             1 RES     
    6936 H           37.5617    40.5876   -17.8724 H             1 RES     
    6937 C           38.0348    42.4060   -18.9435 C             1 RES     
    6938 H           39.1035    42.1952   -18.9812 H             1 RES     
    6939 H           37.8795    43.4782   -18.8232 H             1 RES     
    6940 C           37.3727    41.9355   -20.2519 C             1 RES     
    6941 H           36.3040    42.1463   -20.2143 H             1 RES     
    6942 H           37.5280    40.8633   -20.3723 H             1 RES     
    6943 C           38.0011    42.6818   -21.4434 C             1 RES     
    6944 H           39.0699    42.4710   -21.4811 H             1 RES     
    6945 H           37.8458    43.7540   -21.3230 H             1 RES     
    6946 C           37.3390    42.2113   -22.7518 C             1 RES     
    6947 H           36.2703    42.4221   -22.7141 H             1 RES     
    6948 H           37.4944    41.1391   -22.8721 H             1 RES     
    6949 C           37.9675    42.9576   -23.9433 C             1 RES     
    6950 H           39.0362    42.7468   -23.9809 H             1 RES     
    6951 H           37.8121    44.0297   -23.8229 H             1 RES     
    6952 C           37.3054    42.4871   -25.2516 C             1 RES     
    6953 H           36.2366    42.6979   -25.2140 H             1 RES     
    6954 H           37.4607    41.4149   -25.3720 H             1 RES     
    6955 C           37.9052    43.1995   -26.3890 C             1 RES     
    6956 H           37.1695    43.9706   -26.2940 H             1 RES     
    6957 H           38.0723    42.9911   -27.4253 H             1 RES     
    6958 H           38.8210    43.5222   -25.9378 H             1 RES     
    6959 N            0.0000    32.8634     5.0000 N             1 RES     
    6960 C           -0.1940    34.3169     5.2164 C             1 RES     
    6961 H            0.5964    34.9153     4.7159 H             1 RES     
    6962 H           -0.1459    34.5695     6.2997 H             1 RES     
    6963 H           -1.1834    34.6502     4.8309 H             1 RES     
    6964 C            1.3371    32.4627     5.4991 C             1 RES     
    6965 H            1.5187    31.3779     5.3296 H             1 RES     
    6966 H            1.4315    32.6592     6.5909 H             1 RES     
    6967 H            2.1488    33.0353     5.0024 H             1 RES     
    6968 C           -1.0275    32.1340     5.7821 C             1 RES     
    6969 H           -0.9489    32.3645     6.8687 H             1 RES     
    6970 H           -0.9165    31.0326     5.6630 H             1 RES     
    6971 H           -2.0546    32.4107     5.4530 H             1 RES     
    6972 C           -0.1728    32.5012     3.5602 C             1 RES     
    6973 H           -1.1979    32.7708     3.2192 H             1 RES     
    6974 H           -0.0666    31.4007     3.4280 H             1 RES     
    6975 C            0.8128    33.1671     2.5893 C             1 RES     
    6976 H            1.8642    32.8700     2.7771 H             1 RES     
    6977 H            0.7080    34.2703     2.5636 H             1 RES     
    6978 P           -0.2701    33.7813     0.4251 P             1 RES     
    6979 O           -0.3882    33.3851    -1.1206 O             1 RES     
    6980 O            0.7279    32.7700     1.1609 O             1 RES     
    6981 O            0.3337    35.2620     0.4782 O             1 RES     
    6982 O           -1.7350    33.6383     1.0524 O             1 RES     
    6983 C           -1.3196    34.3422    -1.7698 C             1 RES     
    6984 H           -0.9281    35.3545    -1.6696 H             1 RES     
    6985 H           -2.2963    34.2807    -1.2898 H             1 RES     
    6986 C           -0.5859    32.7649    -3.5864 C             1 RES     
    6987 H            0.4564    32.9918    -3.3625 H             1 RES     
    6988 H           -0.9117    31.9179    -2.9827 H             1 RES     
    6989 C           -1.4589    33.9916    -3.2629 C             1 RES     
    6990 H           -2.5012    33.7647    -3.4869 H             1 RES     
    6991 C            0.4253    33.3159    -5.4073 C             1 RES     
    6992 O            1.0890    33.9898    -4.6210 O             1 RES     
    6993 O           -0.7188    32.4302    -5.0117 O             1 RES     
    6994 C            0.6406    33.2586    -6.8198 C             1 RES     
    6995 H           -0.2579    33.5903    -7.3401 H             1 RES     
    6996 H            0.8663    32.2305    -7.1027 H             1 RES     
    6997 C            1.8220    34.1680    -7.2058 C             1 RES     
    6998 H            2.7206    33.8363    -6.6855 H             1 RES     
    6999 H            1.5964    35.1961    -6.9230 H             1 RES     
    7000 C            2.0528    34.0932    -8.7266 C             1 RES     
    7001 H            1.1542    34.4248    -9.2469 H             1 RES     
    7002 H            2.2785    33.0650    -9.0095 H             1 RES     
    7003 C            3.2342    35.0025    -9.1127 C             1 RES     
    7004 H            4.1327    34.6709    -8.5924 H             1 RES     
    7005 H            3.0085    36.0307    -8.8298 H             1 RES     
    7006 C            3.4649    34.9277   -10.6334 C             1 RES     
    7007 H            2.5663    35.2593   -11.1537 H             1 RES     
    7008 H            3.6906    33.8995   -10.9163 H             1 RES     
    7009 C            4.6463    35.8370   -11.0195 C             1 RES     
    7010 H            5.5449    35.5054   -10.4992 H             1 RES     
    7011 H            4.4206    36.8652   -10.7366 H             1 RES     
    7012 C            4.8770    35.7622   -12.5403 C             1 RES     
    7013 H            3.9785    36.0939   -13.0606 H             1 RES     
    7014 H            5.1027    34.7340   -12.8231 H             1 RES     
    7015 C            6.0584    36.6715   -12.9263 C             1 RES     
    7016 H            6.9570    36.3399   -12.4060 H             1 RES     
    7017 H            5.8328    37.6997   -12.6434 H             1 RES     
    7018 C            6.2892    36.5968   -14.4471 C             1 RES     
    7019 H            5.3906    36.9284   -14.9674 H             1 RES     
    7020 H            6.5148    35.5686   -14.7299 H             1 RES     
    7021 C            7.4706    37.5061   -14.8331 C             1 RES     
    7022 H            8.3691    37.1744   -14.3128 H             1 RES     
    7023 H            7.2449    38.5343   -14.5503 H             1 RES     
    7024 C            7.7013    37.4313   -16.3539 C             1 RES     
    7025 H            6.8027    37.7629   -16.8742 H             1 RES     
    7026 H            7.9270    36.4031   -16.6368 H             1 RES     
    7027 C            8.8827    38.3406   -16.7399 C             1 RES     
    7028 H            9.7813    38.0090   -16.2196 H             1 RES     
    7029 H            8.6570    39.3688   -16.4571 H             1 RES     
    7030 C            9.1134    38.2658   -18.2607 C             1 RES     
    7031 H            8.2149    38.5974   -18.7810 H             1 RES     
    7032 H            9.3391    37.2376   -18.5436 H             1 RES     
    7033 C           10.2948    39.1751   -18.6468 C             1 RES     
    7034 H           11.1934    38.8435   -18.1265 H             1 RES     
    7035 H           10.0692    40.2033   -18.3639 H             1 RES     
    7036 C           10.5256    39.1003   -20.1675 C             1 RES     
    7037 H            9.6270    39.4320   -20.6878 H             1 RES     
    7038 H           10.7512    38.0722   -20.4504 H             1 RES     
    7039 C           11.7070    40.0097   -20.5536 C             1 RES     
    7040 H           12.6055    39.6780   -20.0333 H             1 RES     
    7041 H           11.4813    41.0378   -20.2707 H             1 RES     
    7042 C           11.9272    39.9383   -22.0052 C             1 RES     
    7043 H           12.6029    39.1210   -21.8625 H             1 RES     
    7044 H           12.3138    40.5939   -22.7575 H             1 RES     
    7045 H           10.9734    39.5631   -22.3148 H             1 RES     
    7046 C           -1.4410    34.4320    -5.3317 C             1 RES     
    7047 O           -1.9470    33.3137    -5.4118 O             1 RES     
    7048 O           -1.0359    35.0911    -4.0467 O             1 RES     
    7049 C           -1.1664    35.2874    -6.4442 C             1 RES     
    7050 H           -0.0994    35.5066    -6.4819 H             1 RES     
    7051 H           -1.7246    36.2158    -6.3239 H             1 RES     
    7052 C           -1.5948    34.5972    -7.7526 C             1 RES     
    7053 H           -2.6619    34.3781    -7.7149 H             1 RES     
    7054 H           -1.0367    33.6688    -7.8730 H             1 RES     
    7055 C           -1.3042    35.5286    -8.9441 C             1 RES     
    7056 H           -0.2371    35.7478    -8.9817 H             1 RES     
    7057 H           -1.8624    36.4571    -8.8237 H             1 RES     
    7058 C           -1.7326    34.8385   -10.2525 C             1 RES     
    7059 H           -2.7997    34.6193   -10.2148 H             1 RES     
    7060 H           -1.1745    33.9100   -10.3728 H             1 RES     
    7061 C           -1.4420    35.7699   -11.4439 C             1 RES     
    7062 H           -0.3749    35.9891   -11.4816 H             1 RES     
    7063 H           -2.0001    36.6984   -11.3236 H             1 RES     
    7064 C           -1.8704    35.0798   -12.7523 C             1 RES     
    7065 H           -2.9374    34.8606   -12.7147 H             1 RES     
    7066 H           -1.3122    34.1513   -12.8727 H             1 RES     
    7067 C           -1.5798    36.0112   -13.9438 C             1 RES     
    7068 H           -0.5127    36.2304   -13.9815 H             1 RES     
    7069 H           -2.1379    36.9396   -13.8234 H             1 RES     
    7070 C           -2.0081    35.3210   -15.2522 C             1 RES     
    7071 H           -3.0752    35.1018   -15.2145 H             1 RES     
    7072 H           -1.4500    34.3926   -15.3725 H             1 RES     
    7073 C           -1.7175    36.2524   -16.4437 C             1 RES     
    7074 H           -0.6505    36.4716   -16.4813 H             1 RES     
    7075 H           -2.2757    37.1809   -16.3233 H             1 RES     
    7076 C           -2.1459    35.5623   -17.7520 C             1 RES     
    7077 H           -3.2130    35.3431   -17.7144 H             1 RES     
    7078 H           -1.5878    34.6338   -17.8724 H             1 RES     
    7079 C           -1.8553    36.4937   -18.9435 C             1 RES     
    7080 H           -0.7882    36.7129   -18.9812 H             1 RES     
    7081 H           -2.4134    37.4222   -18.8232 H             1 RES     
    7082 C           -2.2837    35.8036   -20.2519 C             1 RES     
    7083 H           -3.3508    35.5844   -20.2143 H             1 RES     
    7084 H           -1.7255    34.8751   -20.3723 H             1 RES     
    7085 C           -1.9931    36.7350   -21.4434 C             1 RES     
    7086 H           -0.9260    36.9542   -21.4811 H             1 RES     
    7087 H           -2.5512    37.6634   -21.3230 H             1 RES     
    7088 C           -2.4215    36.0448   -22.7518 C             1 RES     
    7089 H           -3.4885    35.8256   -22.7141 H             1 RES     
    7090 H           -1.8633    35.1164   -22.8721 H             1 RES     
    7091 C           -2.1308    36.9762   -23.9433 C             1 RES     
    7092 H           -1.0638    37.1954   -23.9809 H             1 RES     
    7093 H           -2.6890    37.9047   -23.8229 H             1 RES     
    7094 C           -2.5592    36.2861   -25.2516 C             1 RES     
    7095 H           -3.6263    36.0669   -25.2140 H             1 RES     
    7096 H           -2.0011    35.3576   -25.3720 H             1 RES     
    7097 C           -2.2818    37.1752   -26.3890 C             1 RES     
    7098 H           -3.2586    37.6015   -26.2940 H             1 RES     
    7099 H           -2.0471    37.0477   -27.4253 H             1 RES     
    7100 H           -1.5623    37.8271   -25.9378 H             1 RES     
    7101 C           57.8179    10.1951   -20.5091 C             1 RES     
    7102 H           57.8298    11.2646   -20.5393 H             1 RES     
    7103 H           58.0716     9.8078   -21.4739 H             1 RES     
    7104 H           58.5300     9.8504   -19.7877 H             1 RES     
    7105 C           48.9122    10.9193     1.6071 C             1 RES     
    7106 H           48.3306    11.8096     1.3678 H             1 RES     
    7107 H           48.3108    10.0301     1.4181 H             1 RES     
    7108 C           50.1757    10.8804     0.7275 C             1 RES     
    7109 H           50.7573     9.9902     0.9667 H             1 RES     
    7110 H           50.7772    11.7696     0.9165 H             1 RES     
    7111 C           49.7677    10.8430    -0.7570 C             1 RES     
    7112 H           49.1861    11.7333    -0.9962 H             1 RES     
    7113 H           49.1663     9.9538    -0.9459 H             1 RES     
    7114 C           51.0312    10.8041    -1.6365 C             1 RES     
    7115 H           51.6129     9.9138    -1.3973 H             1 RES     
    7116 H           51.6327    11.6933    -1.4476 H             1 RES     
    7117 C           50.6232    10.7667    -3.1210 C             1 RES     
    7118 H           50.0416    11.6569    -3.3603 H             1 RES     
    7119 H           50.0218     9.8775    -3.3100 H             1 RES     
    7120 C           51.8867    10.7277    -4.0006 C             1 RES     
    7121 H           52.4684     9.8375    -3.7614 H             1 RES     
    7122 H           52.4882    11.6169    -3.8117 H             1 RES     
    7123 C           51.4787    10.6903    -5.4851 C             1 RES     
    7124 H           50.8971    11.5806    -5.7243 H             1 RES     
    7125 H           50.8773     9.8011    -5.6740 H             1 RES     
    7126 C           52.7422    10.6514    -6.3647 C             1 RES     
    7127 H           53.3239     9.7611    -6.1254 H             1 RES     
    7128 H           53.3437    11.5406    -6.1757 H             1 RES     
    7129 C           52.3342    10.6140    -7.8492 C             1 RES     
    7130 H           51.7526    11.5042    -8.0884 H             1 RES     
    7131 H           51.7328     9.7248    -8.0381 H             1 RES     
    7132 C           53.5977    10.5750    -8.7287 C             1 RES     
    7133 H           54.1794     9.6848    -8.4895 H             1 RES     
    7134 H           54.1992    11.4642    -8.5398 H             1 RES     
    7135 C           53.1898    10.5376   -10.2132 C             1 RES     
    7136 H           52.6081    11.4279   -10.4525 H             1 RES     
    7137 H           52.5883     9.6484   -10.4022 H             1 RES     
    7138 C           54.4533    10.4987   -11.0928 C             1 RES     
    7139 H           55.0349     9.6084   -10.8536 H             1 RES     
    7140 H           55.0547    11.3879   -10.9039 H             1 RES     
    7141 C           54.0453    10.4613   -12.5773 C             1 RES     
    7142 H           53.4636    11.3515   -12.8165 H             1 RES     
    7143 H           53.4438     9.5721   -12.7662 H             1 RES     
    7144 C           55.3088    10.4224   -13.4569 C             1 RES     
    7145 H           55.8904     9.5321   -13.2176 H             1 RES     
    7146 H           55.9102    11.3116   -13.2679 H             1 RES     
    7147 C           54.9008    10.3849   -14.9414 C             1 RES     
    7148 H           54.3191    11.2752   -15.1806 H             1 RES     
    7149 H           54.2993     9.4957   -15.1303 H             1 RES     
    7150 C           56.1643    10.3460   -15.8209 C             1 RES     
    7151 H           56.7459     9.4558   -15.5817 H             1 RES     
    7152 H           56.7657    11.2352   -15.6320 H             1 RES     
    7153 C           55.7563    10.3086   -17.3054 C             1 RES     
    7154 H           55.1746    11.1989   -17.5446 H             1 RES     
    7155 H           55.1548     9.4194   -17.4944 H             1 RES     
    7156 C           57.0198    10.2697   -18.1850 C             1 RES     
    7157 H           57.6014     9.3794   -17.9457 H             1 RES     
    7158 H           57.6212    11.1589   -17.9960 H             1 RES     
    7159 C           56.6118    10.2323   -19.6695 C             1 RES     
    7160 H           56.0302    11.1225   -19.9087 H             1 RES     
    7161 H           56.0103     9.3431   -19.8584 H             1 RES     
    7162 O           49.2950    10.9545     3.0000 O             1 RES     
    7163 H           49.3635    10.0491     3.3118 H             1 RES     
    7164 C           52.3239    10.0258   -20.5091 C             1 RES     
    7165 H           52.3570    11.0948   -20.5393 H             1 RES     
    7166 H           52.5698     9.6335   -21.4739 H             1 RES     
    7167 H           53.0290     9.6670   -19.7877 H             1 RES     
    7168 C           43.4344    10.9270     1.6071 C             1 RES     
    7169 H           42.8705    11.8286     1.3678 H             1 RES     
    7170 H           42.8153    10.0499     1.4181 H             1 RES     
    7171 C           44.6968    10.8629     0.7275 C             1 RES     
    7172 H           45.2607     9.9613     0.9667 H             1 RES     
    7173 H           45.3158    11.7400     0.9165 H             1 RES     
    7174 C           44.2882    10.8336    -0.7570 C             1 RES     
    7175 H           43.7244    11.7353    -0.9962 H             1 RES     
    7176 H           43.6692     9.9566    -0.9459 H             1 RES     
    7177 C           45.5507    10.7696    -1.6365 C             1 RES     
    7178 H           46.1145     9.8679    -1.3973 H             1 RES     
    7179 H           46.1697    11.6466    -1.4476 H             1 RES     
    7180 C           45.1420    10.7403    -3.1210 C             1 RES     
    7181 H           44.5782    11.6419    -3.3603 H             1 RES     
    7182 H           44.5230     9.8632    -3.3100 H             1 RES     
    7183 C           46.4045    10.6762    -4.0006 C             1 RES     
    7184 H           46.9683     9.7746    -3.7614 H             1 RES     
    7185 H           47.0235    11.5533    -3.8117 H             1 RES     
    7186 C           45.9958    10.6469    -5.4851 C             1 RES     
    7187 H           45.4320    11.5486    -5.7243 H             1 RES     
    7188 H           45.3768     9.7699    -5.6740 H             1 RES     
    7189 C           47.2583    10.5829    -6.3647 C             1 RES     
    7190 H           47.8221     9.6812    -6.1254 H             1 RES     
    7191 H           47.8773    11.4600    -6.1757 H             1 RES     
    7192 C           46.8496    10.5536    -7.8492 C             1 RES     
    7193 H           46.2858    11.4552    -8.0884 H             1 RES     
    7194 H           46.2306     9.6765    -8.0381 H             1 RES     
    7195 C           48.1121    10.4896    -8.7287 C             1 RES     
    7196 H           48.6759     9.5879    -8.4895 H             1 RES     
    7197 H           48.7311    11.3666    -8.5398 H             1 RES     
    7198 C           47.7035    10.4603   -10.2132 C             1 RES     
    7199 H           47.1396    11.3619   -10.4525 H             1 RES     
    7200 H           47.0845     9.5832   -10.4022 H             1 RES     
    7201 C           48.9660    10.3962   -11.0928 C             1 RES     
    7202 H           49.5298     9.4946   -10.8536 H             1 RES     
    7203 H           49.5850    11.2733   -10.9039 H             1 RES     
    7204 C           48.5573    10.3669   -12.5773 C             1 RES     
    7205 H           47.9935    11.2686   -12.8165 H             1 RES     
    7206 H           47.9383     9.4899   -12.7662 H             1 RES     
    7207 C           49.8198    10.3029   -13.4569 C             1 RES     
    7208 H           50.3836     9.4012   -13.2176 H             1 RES     
    7209 H           50.4388    11.1799   -13.2679 H             1 RES     
    7210 C           49.4111    10.2736   -14.9414 C             1 RES     
    7211 H           48.8473    11.1752   -15.1806 H             1 RES     
    7212 H           48.7921     9.3965   -15.1303 H             1 RES     
    7213 C           50.6736    10.2095   -15.8209 C             1 RES     
    7214 H           51.2374     9.3079   -15.5817 H             1 RES     
    7215 H           51.2926    11.0866   -15.6320 H             1 RES     
    7216 C           50.2649    10.1802   -17.3054 C             1 RES     
    7217 H           49.7011    11.0819   -17.5446 H             1 RES     
    7218 H           49.6459     9.3032   -17.4944 H             1 RES     
    7219 C           51.5274    10.1162   -18.1850 C             1 RES     
    7220 H           52.0912     9.2145   -17.9457 H             1 RES     
    7221 H           52.1464    10.9933   -17.9960 H             1 RES     
    7222 C           51.1188    10.0869   -19.6695 C             1 RES     
    7223 H           50.5549    10.9885   -19.9087 H             1 RES     
    7224 H           50.4998     9.2098   -19.8584 H             1 RES     
    7225 O           43.8178    10.9545     3.0000 O             1 RES     
    7226 H           43.8682    10.0479     3.3118 H             1 RES     
    7227 C           24.9866    38.5120   -20.5091 C             1 RES     
    7228 H           24.8822    39.5764   -20.5393 H             1 RES     
    7229 H           25.2809    38.1546   -21.4739 H             1 RES     
    7230 H           25.7319    38.2467   -19.7877 H             1 RES     
    7231 C           16.0549    38.2641     1.6071 C             1 RES     
    7232 H           15.3800    39.0858     1.3678 H             1 RES     
    7233 H           15.5537    37.3148     1.4181 H             1 RES     
    7234 C           17.3152    38.3627     0.7275 C             1 RES     
    7235 H           17.9901    37.5409     0.9667 H             1 RES     
    7236 H           17.8164    39.3120     0.9165 H             1 RES     
    7237 C           16.9137    38.2812    -0.7570 C             1 RES     
    7238 H           16.2387    39.1029    -0.9962 H             1 RES     
    7239 H           16.4124    37.3319    -0.9459 H             1 RES     
    7240 C           18.1739    38.3798    -1.6365 C             1 RES     
    7241 H           18.8489    37.5580    -1.3973 H             1 RES     
    7242 H           18.6752    39.3291    -1.4476 H             1 RES     
    7243 C           17.7724    38.2982    -3.1210 C             1 RES     
    7244 H           17.0975    39.1200    -3.3603 H             1 RES     
    7245 H           17.2712    37.3489    -3.3100 H             1 RES     
    7246 C           19.0327    38.3969    -4.0006 C             1 RES     
    7247 H           19.7076    37.5751    -3.7614 H             1 RES     
    7248 H           19.5339    39.3462    -3.8117 H             1 RES     
    7249 C           18.6311    38.3153    -5.4851 C             1 RES     
    7250 H           17.9562    39.1371    -5.7243 H             1 RES     
    7251 H           18.1299    37.3660    -5.6740 H             1 RES     
    7252 C           19.8914    38.4139    -6.3647 C             1 RES     
    7253 H           20.5663    37.5922    -6.1254 H             1 RES     
    7254 H           20.3926    39.3632    -6.1757 H             1 RES     
    7255 C           19.4899    38.3324    -7.8492 C             1 RES     
    7256 H           18.8149    39.1542    -8.0884 H             1 RES     
    7257 H           18.9886    37.3831    -8.0381 H             1 RES     
    7258 C           20.7501    38.4310    -8.7287 C             1 RES     
    7259 H           21.4251    37.6093    -8.4895 H             1 RES     
    7260 H           21.2514    39.3803    -8.5398 H             1 RES     
    7261 C           20.3486    38.3495   -10.2132 C             1 RES     
    7262 H           19.6737    39.1713   -10.4525 H             1 RES     
    7263 H           19.8474    37.4002   -10.4022 H             1 RES     
    7264 C           21.6089    38.4481   -11.0928 C             1 RES     
    7265 H           22.2838    37.6263   -10.8536 H             1 RES     
    7266 H           22.1101    39.3974   -10.9039 H             1 RES     
    7267 C           21.2074    38.3666   -12.5773 C             1 RES     
    7268 H           20.5324    39.1884   -12.8165 H             1 RES     
    7269 H           20.7061    37.4173   -12.7662 H             1 RES     
    7270 C           22.4676    38.4652   -13.4569 C             1 RES     
    7271 H           23.1426    37.6434   -13.2176 H             1 RES     
    7272 H           22.9689    39.4145   -13.2679 H             1 RES     
    7273 C           22.0661    38.3837   -14.9414 C             1 RES     
    7274 H           21.3912    39.2054   -15.1806 H             1 RES     
    7275 H           21.5649    37.4344   -15.1303 H             1 RES     
    7276 C           23.3264    38.4823   -15.8209 C             1 RES     
    7277 H           24.0013    37.6605   -15.5817 H             1 RES     
    7278 H           23.8276    39.4316   -15.6320 H             1 RES     
    7279 C           22.9248    38.4008   -17.3054 C             1 RES     
    7280 H           22.2499    39.2225   -17.5446 H             1 RES     
    7281 H           22.4236    37.4515   -17.4944 H             1 RES     
    7282 C           24.1851    38.4994   -18.1850 C             1 RES     
    7283 H           24.8600    37.6776   -17.9457 H             1 RES     
    7284 H           24.6863    39.4487   -17.9960 H             1 RES     
    7285 C           23.7836    38.4178   -19.6695 C             1 RES     
    7286 H           23.1086    39.2396   -19.9087 H             1 RES     
    7287 H           23.2823    37.4685   -19.8584 H             1 RES     
    7288 O           16.4317    38.3406     3.0000 O             1 RES     
    7289 H           16.5981    37.4480     3.3118 H             1 RES     
    7290 C           30.4217    50.1599   -20.5091 C             1 RES     
    7291 H           30.2313    51.2124   -20.5393 H             1 RES     
    7292 H           30.7440    49.8276   -21.4739 H             1 RES     
    7293 H           31.1861    49.9560   -19.7877 H             1 RES     
    7294 C           21.5396    49.1882     1.6071 C             1 RES     
    7295 H           20.8002    49.9525     1.3678 H             1 RES     
    7296 H           21.1170    48.2014     1.4181 H             1 RES     
    7297 C           22.7877    49.3888     0.7275 C             1 RES     
    7298 H           23.5271    48.6244     0.9667 H             1 RES     
    7299 H           23.2103    50.3756     0.9165 H             1 RES     
    7300 C           22.3941    49.2749    -0.7570 C             1 RES     
    7301 H           21.6547    50.0392    -0.9962 H             1 RES     
    7302 H           21.9716    48.2881    -0.9459 H             1 RES     
    7303 C           23.6422    49.4755    -1.6365 C             1 RES     
    7304 H           24.3816    48.7111    -1.3973 H             1 RES     
    7305 H           24.0648    50.4623    -1.4476 H             1 RES     
    7306 C           23.2487    49.3616    -3.1210 C             1 RES     
    7307 H           22.5093    50.1259    -3.3603 H             1 RES     
    7308 H           22.8261    48.3748    -3.3100 H             1 RES     
    7309 C           24.4967    49.5622    -4.0006 C             1 RES     
    7310 H           25.2361    48.7978    -3.7614 H             1 RES     
    7311 H           24.9193    50.5490    -3.8117 H             1 RES     
    7312 C           24.1032    49.4483    -5.4851 C             1 RES     
    7313 H           23.3638    50.2126    -5.7243 H             1 RES     
    7314 H           23.6806    48.4615    -5.6740 H             1 RES     
    7315 C           25.3513    49.6489    -6.3647 C             1 RES     
    7316 H           26.0907    48.8845    -6.1254 H             1 RES     
    7317 H           25.7738    50.6357    -6.1757 H             1 RES     
    7318 C           24.9577    49.5350    -7.8492 C             1 RES     
    7319 H           24.2183    50.2993    -8.0884 H             1 RES     
    7320 H           24.5351    48.5482    -8.0381 H             1 RES     
    7321 C           26.2058    49.7356    -8.7287 C             1 RES     
    7322 H           26.9452    48.9713    -8.4895 H             1 RES     
    7323 H           26.6284    50.7224    -8.5398 H             1 RES     
    7324 C           25.8122    49.6217   -10.2132 C             1 RES     
    7325 H           25.0728    50.3860   -10.4525 H             1 RES     
    7326 H           25.3896    48.6349   -10.4022 H             1 RES     
    7327 C           27.0603    49.8223   -11.0928 C             1 RES     
    7328 H           27.7997    49.0580   -10.8536 H             1 RES     
    7329 H           27.4829    50.8091   -10.9039 H             1 RES     
    7330 C           26.6667    49.7084   -12.5773 C             1 RES     
    7331 H           25.9273    50.4727   -12.8165 H             1 RES     
    7332 H           26.2442    48.7216   -12.7662 H             1 RES     
    7333 C           27.9148    49.9090   -13.4569 C             1 RES     
    7334 H           28.6542    49.1447   -13.2176 H             1 RES     
    7335 H           28.3374    50.8958   -13.2679 H             1 RES     
    7336 C           27.5213    49.7951   -14.9414 C             1 RES     
    7337 H           26.7819    50.5594   -15.1806 H             1 RES     
    7338 H           27.0987    48.8083   -15.1303 H             1 RES     
    7339 C           28.7694    49.9957   -15.8209 C             1 RES     
    7340 H           29.5088    49.2314   -15.5817 H             1 RES     
    7341 H           29.1919    50.9825   -15.6320 H             1 RES     
    7342 C           28.3758    49.8818   -17.3054 C             1 RES     
    7343 H           27.6364    50.6461   -17.5446 H             1 RES     
    7344 H           27.9532    48.8950   -17.4944 H             1 RES     
    7345 C           29.6239    50.0824   -18.1850 C             1 RES     
    7346 H           30.3633    49.3181   -17.9457 H             1 RES     
    7347 H           30.0465    51.0692   -17.9960 H             1 RES     
    7348 C           29.2303    49.9685   -19.6695 C             1 RES     
    7349 H           28.4909    50.7328   -19.9087 H             1 RES     
    7350 H           28.8077    48.9817   -19.8584 H             1 RES     
    7351 O           21.9089    49.2950     3.0000 O             1 RES     
    7352 H           22.1472    48.4189     3.3118 H             1 RES     
    7353 C           13.9996     0.7651   -20.5091 C             1 RES     
    7354 H           13.8215     1.8197   -20.5393 H             1 RES     
    7355 H           14.3180     0.4290   -21.4739 H             1 RES     
    7356 H           14.7615     0.5522   -19.7877 H             1 RES     
    7357 C            5.1067    -0.1025     1.6071 C             1 RES     
    7358 H            4.3763     0.6704     1.3678 H             1 RES     
    7359 H            4.6726    -1.0843     1.4181 H             1 RES     
    7360 C            6.3571     0.0834     0.7275 C             1 RES     
    7361 H            7.0875    -0.6895     0.9667 H             1 RES     
    7362 H            6.7912     1.0652     0.9165 H             1 RES     
    7363 C            5.9622    -0.0258    -0.7570 C             1 RES     
    7364 H            5.2318     0.7471    -0.9962 H             1 RES     
    7365 H            5.5281    -1.0076    -0.9459 H             1 RES     
    7366 C            7.2125     0.1601    -1.6365 C             1 RES     
    7367 H            7.9429    -0.6128    -1.3973 H             1 RES     
    7368 H            7.6467     1.1419    -1.4476 H             1 RES     
    7369 C            6.8177     0.0509    -3.1210 C             1 RES     
    7370 H            6.0873     0.8238    -3.3603 H             1 RES     
    7371 H            6.3836    -0.9309    -3.3100 H             1 RES     
    7372 C            8.0680     0.2368    -4.0006 C             1 RES     
    7373 H            8.7984    -0.5361    -3.7614 H             1 RES     
    7374 H            8.5021     1.2186    -3.8117 H             1 RES     
    7375 C            7.6731     0.1276    -5.4851 C             1 RES     
    7376 H            6.9428     0.9005    -5.7243 H             1 RES     
    7377 H            7.2390    -0.8543    -5.6740 H             1 RES     
    7378 C            8.9235     0.3135    -6.3647 C             1 RES     
    7379 H            9.6539    -0.4595    -6.1254 H             1 RES     
    7380 H            9.3576     1.2953    -6.1757 H             1 RES     
    7381 C            8.5286     0.2042    -7.8492 C             1 RES     
    7382 H            7.7982     0.9772    -8.0884 H             1 RES     
    7383 H            8.0945    -0.7776    -8.0381 H             1 RES     
    7384 C            9.7790     0.3901    -8.7287 C             1 RES     
    7385 H           10.5094    -0.3828    -8.4895 H             1 RES     
    7386 H           10.2131     1.3719    -8.5398 H             1 RES     
    7387 C            9.3841     0.2809   -10.2132 C             1 RES     
    7388 H            8.6537     1.0538   -10.4525 H             1 RES     
    7389 H            8.9500    -0.7009   -10.4022 H             1 RES     
    7390 C           10.6345     0.4668   -11.0928 C             1 RES     
    7391 H           11.3648    -0.3061   -10.8536 H             1 RES     
    7392 H           11.0686     1.4486   -10.9039 H             1 RES     
    7393 C           10.2396     0.3576   -12.5773 C             1 RES     
    7394 H            9.5092     1.1305   -12.8165 H             1 RES     
    7395 H            9.8055    -0.6242   -12.7662 H             1 RES     
    7396 C           11.4899     0.5435   -13.4569 C             1 RES     
    7397 H           12.2203    -0.2294   -13.2176 H             1 RES     
    7398 H           11.9241     1.5253   -13.2679 H             1 RES     
    7399 C           11.0951     0.4343   -14.9414 C             1 RES     
    7400 H           10.3647     1.2072   -15.1806 H             1 RES     
    7401 H           10.6610    -0.5475   -15.1303 H             1 RES     
    7402 C           12.3454     0.6202   -15.8209 C             1 RES     
    7403 H           13.0758    -0.1527   -15.5817 H             1 RES     
    7404 H           12.7795     1.6020   -15.6320 H             1 RES     
    7405 C           11.9505     0.5109   -17.3054 C             1 RES     
    7406 H           11.2202     1.2839   -17.5446 H             1 RES     
    7407 H           11.5164    -0.4709   -17.4944 H             1 RES     
    7408 C           13.2009     0.6969   -18.1850 C             1 RES     
    7409 H           13.9313    -0.0761   -17.9457 H             1 RES     
    7410 H           13.6350     1.6787   -17.9960 H             1 RES     
    7411 C           12.8060     0.5876   -19.6695 C             1 RES     
    7412 H           12.0756     1.3605   -19.9087 H             1 RES     
    7413 H           12.3719    -0.3942   -19.8584 H             1 RES     
    7414 O            5.4772     0.0000     3.0000 O             1 RES     
    7415 H            5.7052    -0.8789     3.3118 H             1 RES     
    7416 C           30.3613    12.2859   -20.5091 C             1 RES     
    7417 H           30.1133    13.3263   -20.5393 H             1 RES     
    7418 H           30.7014    11.9718   -21.4739 H             1 RES     
    7419 H           31.1358    12.1243   -19.7877 H             1 RES     
    7420 C           21.5460    10.8275     1.6071 C             1 RES     
    7421 H           20.7658    11.5500     1.3678 H             1 RES     
    7422 H           21.1783     9.8189     1.4181 H             1 RES     
    7423 C           22.7812    11.0963     0.7275 C             1 RES     
    7424 H           23.5615    10.3738     0.9667 H             1 RES     
    7425 H           23.1489    12.1049     0.9165 H             1 RES     
    7426 C           22.3945    10.9610    -0.7570 C             1 RES     
    7427 H           21.6142    11.6835    -0.9962 H             1 RES     
    7428 H           22.0268     9.9525    -0.9459 H             1 RES     
    7429 C           23.6297    11.2299    -1.6365 C             1 RES     
    7430 H           24.4100    10.5073    -1.3973 H             1 RES     
    7431 H           23.9974    12.2384    -1.4476 H             1 RES     
    7432 C           23.2430    11.0946    -3.1210 C             1 RES     
    7433 H           22.4627    11.8171    -3.3603 H             1 RES     
    7434 H           22.8753    10.0860    -3.3100 H             1 RES     
    7435 C           24.4782    11.3634    -4.0006 C             1 RES     
    7436 H           25.2584    10.6409    -3.7614 H             1 RES     
    7437 H           24.8459    12.3720    -3.8117 H             1 RES     
    7438 C           24.0914    11.2281    -5.4851 C             1 RES     
    7439 H           23.3112    11.9506    -5.7243 H             1 RES     
    7440 H           23.7237    10.2195    -5.6740 H             1 RES     
    7441 C           25.3266    11.4969    -6.3647 C             1 RES     
    7442 H           26.1069    10.7744    -6.1254 H             1 RES     
    7443 H           25.6943    12.5055    -6.1757 H             1 RES     
    7444 C           24.9399    11.3616    -7.8492 C             1 RES     
    7445 H           24.1596    12.0841    -8.0884 H             1 RES     
    7446 H           24.5722    10.3531    -8.0381 H             1 RES     
    7447 C           26.1751    11.6305    -8.7287 C             1 RES     
    7448 H           26.9554    10.9079    -8.4895 H             1 RES     
    7449 H           26.5428    12.6390    -8.5398 H             1 RES     
    7450 C           25.7884    11.4952   -10.2132 C             1 RES     
    7451 H           25.0081    12.2177   -10.4525 H             1 RES     
    7452 H           25.4207    10.4866   -10.4022 H             1 RES     
    7453 C           27.0236    11.7640   -11.0928 C             1 RES     
    7454 H           27.8038    11.0415   -10.8536 H             1 RES     
    7455 H           27.3913    12.7725   -10.9039 H             1 RES     
    7456 C           26.6368    11.6287   -12.5773 C             1 RES     
    7457 H           25.8566    12.3512   -12.8165 H             1 RES     
    7458 H           26.2691    10.6201   -12.7662 H             1 RES     
    7459 C           27.8720    11.8975   -13.4569 C             1 RES     
    7460 H           28.6523    11.1750   -13.2176 H             1 RES     
    7461 H           28.2397    12.9061   -13.2679 H             1 RES     
    7462 C           27.4853    11.7622   -14.9414 C             1 RES     
    7463 H           26.7050    12.4847   -15.1806 H             1 RES     
    7464 H           27.1176    10.7536   -15.1303 H             1 RES     
    7465 C           28.7205    12.0310   -15.8209 C             1 RES     
    7466 H           29.5008    11.3085   -15.5817 H             1 RES     
    7467 H           29.0882    13.0396   -15.6320 H             1 RES     
    7468 C           28.3338    11.8957   -17.3054 C             1 RES     
    7469 H           27.5535    12.6183   -17.5446 H             1 RES     
    7470 H           27.9661    10.8872   -17.4944 H             1 RES     
    7471 C           29.5690    12.1646   -18.1850 C             1 RES     
    7472 H           30.3492    11.4421   -17.9457 H             1 RES     
    7473 H           29.9367    13.1731   -17.9960 H             1 RES     
    7474 C           29.1822    12.0293   -19.6695 C             1 RES     
    7475 H           28.4020    12.7518   -19.9087 H             1 RES     
    7476 H           28.8145    11.0207   -19.8584 H             1 RES     
    7477 O           21.9089    10.9545     3.0000 O             1 RES     
    7478 H           22.1950    10.0927     3.3118 H             1 RES     
    7479 C           35.8752    37.2679   -20.5091 C             1 RES     
    7480 H           35.9265    38.3362   -20.5393 H             1 RES     
    7481 H           36.1145    36.8715   -21.4739 H             1 RES     
    7482 H           36.5742    36.8972   -19.7877 H             1 RES     
    7483 C           27.0023    38.3196     1.6071 C             1 RES     
    7484 H           26.4538    39.2307     1.3678 H             1 RES     
    7485 H           26.3685    37.4531     1.4181 H             1 RES     
    7486 C           28.2635    38.2342     0.7275 C             1 RES     
    7487 H           28.8119    37.3231     0.9667 H             1 RES     
    7488 H           28.8973    39.1006     0.9165 H             1 RES     
    7489 C           27.8544    38.2118    -0.7570 C             1 RES     
    7490 H           27.3059    39.1229    -0.9962 H             1 RES     
    7491 H           27.2206    37.3453    -0.9459 H             1 RES     
    7492 C           29.1156    38.1264    -1.6365 C             1 RES     
    7493 H           29.6641    37.2153    -1.3973 H             1 RES     
    7494 H           29.7494    38.9928    -1.4476 H             1 RES     
    7495 C           28.7065    38.1040    -3.1210 C             1 RES     
    7496 H           28.1580    39.0151    -3.3603 H             1 RES     
    7497 H           28.0727    37.2376    -3.3100 H             1 RES     
    7498 C           29.9677    38.0186    -4.0006 C             1 RES     
    7499 H           30.5162    37.1075    -3.7614 H             1 RES     
    7500 H           30.6015    38.8850    -3.8117 H             1 RES     
    7501 C           29.5586    37.9962    -5.4851 C             1 RES     
    7502 H           29.0102    38.9073    -5.7243 H             1 RES     
    7503 H           28.9248    37.1298    -5.6740 H             1 RES     
    7504 C           30.8198    37.9108    -6.3647 C             1 RES     
    7505 H           31.3683    36.9997    -6.1254 H             1 RES     
    7506 H           31.4536    38.7772    -6.1757 H             1 RES     
    7507 C           30.4107    37.8884    -7.8492 C             1 RES     
    7508 H           29.8623    38.7995    -8.0884 H             1 RES     
    7509 H           29.7770    37.0220    -8.0381 H             1 RES     
    7510 C           31.6720    37.8030    -8.7287 C             1 RES     
    7511 H           32.2204    36.8919    -8.4895 H             1 RES     
    7512 H           32.3057    38.6694    -8.5398 H             1 RES     
    7513 C           31.2629    37.7806   -10.2132 C             1 RES     
    7514 H           30.7144    38.6917   -10.4525 H             1 RES     
    7515 H           30.6291    36.9142   -10.4022 H             1 RES     
    7516 C           32.5241    37.6952   -11.0928 C             1 RES     
    7517 H           33.0725    36.7841   -10.8536 H             1 RES     
    7518 H           33.1579    38.5616   -10.9039 H             1 RES     
    7519 C           32.1150    37.6728   -12.5773 C             1 RES     
    7520 H           31.5665    38.5839   -12.8165 H             1 RES     
    7521 H           31.4812    36.8064   -12.7662 H             1 RES     
    7522 C           33.3762    37.5874   -13.4569 C             1 RES     
    7523 H           33.9246    36.6763   -13.2176 H             1 RES     
    7524 H           34.0100    38.4538   -13.2679 H             1 RES     
    7525 C           32.9671    37.5650   -14.9414 C             1 RES     
    7526 H           32.4186    38.4761   -15.1806 H             1 RES     
    7527 H           32.3333    36.6986   -15.1303 H             1 RES     
    7528 C           34.2283    37.4796   -15.8209 C             1 RES     
    7529 H           34.7768    36.5685   -15.5817 H             1 RES     
    7530 H           34.8621    38.3460   -15.6320 H             1 RES     
    7531 C           33.8192    37.4572   -17.3054 C             1 RES     
    7532 H           33.2708    38.3683   -17.5446 H             1 RES     
    7533 H           33.1854    36.5908   -17.4944 H             1 RES     
    7534 C           35.0804    37.3718   -18.1850 C             1 RES     
    7535 H           35.6289    36.4607   -17.9457 H             1 RES     
    7536 H           35.7142    38.2382   -17.9960 H             1 RES     
    7537 C           34.6713    37.3494   -19.6695 C             1 RES     
    7538 H           34.1229    38.2605   -19.9087 H             1 RES     
    7539 H           34.0375    36.4830   -19.8584 H             1 RES     
    7540 O           27.3861    38.3406     3.0000 O             1 RES     
    7541 H           27.4212    37.4333     3.3118 H             1 RES     
    7542 C            8.5503    -0.3275   -20.5091 C             1 RES     
    7543 H            8.5081     0.7412   -20.5393 H             1 RES     
    7544 H            8.8233    -0.7015   -21.4739 H             1 RES     
    7545 H            9.2790    -0.6358   -19.7877 H             1 RES     
    7546 C           -0.3806    -0.0544     1.6071 C             1 RES     
    7547 H           -1.0065     0.8053     1.3678 H             1 RES     
    7548 H           -0.9363    -0.9729     1.4181 H             1 RES     
    7549 C            0.8833    -0.0294     0.7275 C             1 RES     
    7550 H            1.5092    -0.8891     0.9667 H             1 RES     
    7551 H            1.4390     0.8890     0.9165 H             1 RES     
    7552 C            0.4777    -0.0874    -0.7570 C             1 RES     
    7553 H           -0.1482     0.7723    -0.9962 H             1 RES     
    7554 H           -0.0780    -1.0059    -0.9459 H             1 RES     
    7555 C            1.7416    -0.0624    -1.6365 C             1 RES     
    7556 H            2.3675    -0.9221    -1.3973 H             1 RES     
    7557 H            2.2973     0.8560    -1.4476 H             1 RES     
    7558 C            1.3360    -0.1204    -3.1210 C             1 RES     
    7559 H            0.7101     0.7393    -3.3603 H             1 RES     
    7560 H            0.7803    -1.0389    -3.3100 H             1 RES     
    7561 C            2.5998    -0.0954    -4.0006 C             1 RES     
    7562 H            3.2257    -0.9551    -3.7614 H             1 RES     
    7563 H            3.1556     0.8231    -3.8117 H             1 RES     
    7564 C            2.1943    -0.1534    -5.4851 C             1 RES     
    7565 H            1.5684     0.7063    -5.7243 H             1 RES     
    7566 H            1.6385    -1.0719    -5.6740 H             1 RES     
    7567 C            3.4581    -0.1284    -6.3647 C             1 RES     
    7568 H            4.0840    -0.9881    -6.1254 H             1 RES     
    7569 H            4.0138     0.7901    -6.1757 H             1 RES     
    7570 C            3.0525    -0.1864    -7.8492 C             1 RES     
    7571 H            2.4266     0.6733    -8.0884 H             1 RES     
    7572 H            2.4968    -1.1049    -8.0381 H             1 RES     
    7573 C            4.3164    -0.1614    -8.7287 C             1 RES     
    7574 H            4.9423    -1.0211    -8.4895 H             1 RES     
    7575 H            4.8721     0.7571    -8.5398 H             1 RES     
    7576 C            3.9108    -0.2194   -10.2132 C             1 RES     
    7577 H            3.2849     0.6403   -10.4525 H             1 RES     
    7578 H            3.3551    -1.1379   -10.4022 H             1 RES     
    7579 C            5.1747    -0.1944   -11.0928 C             1 RES     
    7580 H            5.8006    -1.0541   -10.8536 H             1 RES     
    7581 H            5.7304     0.7241   -10.9039 H             1 RES     
    7582 C            4.7691    -0.2524   -12.5773 C             1 RES     
    7583 H            4.1432     0.6073   -12.8165 H             1 RES     
    7584 H            4.2134    -1.1709   -12.7662 H             1 RES     
    7585 C            6.0329    -0.2274   -13.4569 C             1 RES     
    7586 H            6.6588    -1.0871   -13.2176 H             1 RES     
    7587 H            6.5887     0.6911   -13.2679 H             1 RES     
    7588 C            5.6274    -0.2854   -14.9414 C             1 RES     
    7589 H            5.0015     0.5743   -15.1806 H             1 RES     
    7590 H            5.0716    -1.2039   -15.1303 H             1 RES     
    7591 C            6.8912    -0.2604   -15.8209 C             1 RES     
    7592 H            7.5171    -1.1201   -15.5817 H             1 RES     
    7593 H            7.4469     0.6581   -15.6320 H             1 RES     
    7594 C            6.4856    -0.3184   -17.3054 C             1 RES     
    7595 H            5.8597     0.5413   -17.5446 H             1 RES     
    7596 H            5.9299    -1.2369   -17.4944 H             1 RES     
    7597 C            7.7495    -0.2934   -18.1850 C             1 RES     
    7598 H            8.3754    -1.1531   -17.9457 H             1 RES     
    7599 H            8.3052     0.6251   -17.9960 H             1 RES     
    7600 C            7.3439    -0.3514   -19.6695 C             1 RES     
    7601 H            6.7180     0.5083   -19.9087 H             1 RES     
    7602 H            6.7882    -1.2699   -19.8584 H             1 RES     
    7603 O            0.0000     0.0000     3.0000 O             1 RES     
    7604 H            0.1141    -0.9008     3.3118 H             1 RES     
    7605 C           52.3527    26.7772   -20.5091 C             1 RES     
    7606 H           52.3457    27.8467   -20.5393 H             1 RES     
    7607 H           52.6132    26.3944   -21.4739 H             1 RES     
    7608 H           53.0708    26.4451   -19.7877 H             1 RES     
    7609 C           43.4357    27.3443     1.6071 C             1 RES     
    7610 H           42.8384    28.2241     1.3678 H             1 RES     
    7611 H           42.8500    26.4446     1.4181 H             1 RES     
    7612 C           44.6997    27.3276     0.7275 C             1 RES     
    7613 H           45.2969    26.4478     0.9667 H             1 RES     
    7614 H           45.2853    28.2273     0.9165 H             1 RES     
    7615 C           44.2924    27.2830    -0.7570 C             1 RES     
    7616 H           43.6951    28.1629    -0.9962 H             1 RES     
    7617 H           43.7067    26.3834    -0.9459 H             1 RES     
    7618 C           45.5564    27.2664    -1.6365 C             1 RES     
    7619 H           46.1536    26.3865    -1.3973 H             1 RES     
    7620 H           46.1420    28.1660    -1.4476 H             1 RES     
    7621 C           45.1491    27.2218    -3.1210 C             1 RES     
    7622 H           44.5519    28.1016    -3.3603 H             1 RES     
    7623 H           44.5634    26.3221    -3.3100 H             1 RES     
    7624 C           46.4131    27.2051    -4.0006 C             1 RES     
    7625 H           47.0103    26.3253    -3.7614 H             1 RES     
    7626 H           46.9988    28.1048    -3.8117 H             1 RES     
    7627 C           46.0058    27.1605    -5.4851 C             1 RES     
    7628 H           45.4086    28.0404    -5.7243 H             1 RES     
    7629 H           45.4202    26.2609    -5.6740 H             1 RES     
    7630 C           47.2698    27.1439    -6.3647 C             1 RES     
    7631 H           47.8671    26.2640    -6.1254 H             1 RES     
    7632 H           47.8555    28.0435    -6.1757 H             1 RES     
    7633 C           46.8625    27.0993    -7.8492 C             1 RES     
    7634 H           46.2653    27.9791    -8.0884 H             1 RES     
    7635 H           46.2769    26.1996    -8.0381 H             1 RES     
    7636 C           48.1265    27.0826    -8.7287 C             1 RES     
    7637 H           48.7238    26.2028    -8.4895 H             1 RES     
    7638 H           48.7122    27.9823    -8.5398 H             1 RES     
    7639 C           47.7193    27.0380   -10.2132 C             1 RES     
    7640 H           47.1220    27.9179   -10.4525 H             1 RES     
    7641 H           47.1336    26.1384   -10.4022 H             1 RES     
    7642 C           48.9833    27.0214   -11.0928 C             1 RES     
    7643 H           49.5805    26.1415   -10.8536 H             1 RES     
    7644 H           49.5689    27.9211   -10.9039 H             1 RES     
    7645 C           48.5760    26.9768   -12.5773 C             1 RES     
    7646 H           47.9787    27.8567   -12.8165 H             1 RES     
    7647 H           47.9903    26.0771   -12.7662 H             1 RES     
    7648 C           49.8400    26.9601   -13.4569 C             1 RES     
    7649 H           50.4372    26.0803   -13.2176 H             1 RES     
    7650 H           50.4257    27.8598   -13.2679 H             1 RES     
    7651 C           49.4327    26.9155   -14.9414 C             1 RES     
    7652 H           48.8355    27.7954   -15.1806 H             1 RES     
    7653 H           48.8470    26.0159   -15.1303 H             1 RES     
    7654 C           50.6967    26.8989   -15.8209 C             1 RES     
    7655 H           51.2940    26.0190   -15.5817 H             1 RES     
    7656 H           51.2824    27.7986   -15.6320 H             1 RES     
    7657 C           50.2894    26.8543   -17.3054 C             1 RES     
    7658 H           49.6922    27.7342   -17.5446 H             1 RES     
    7659 H           49.7038    25.9546   -17.4944 H             1 RES     
    7660 C           51.5534    26.8376   -18.1850 C             1 RES     
    7661 H           52.1507    25.9578   -17.9457 H             1 RES     
    7662 H           52.1391    27.7373   -17.9960 H             1 RES     
    7663 C           51.1462    26.7930   -19.6695 C             1 RES     
    7664 H           50.5489    27.6729   -19.9087 H             1 RES     
    7665 H           50.5605    25.8934   -19.8584 H             1 RES     
    7666 O           43.8178    27.3861     3.0000 O             1 RES     
    7667 H           43.9022    26.4821     3.3118 H             1 RES     
    7668 C           52.3741    49.3698   -20.5091 C             1 RES     
    7669 H           52.2817    50.4354   -20.5393 H             1 RES     
    7670 H           52.6643    49.0091   -21.4739 H             1 RES     
    7671 H           53.1164    49.0961   -19.7877 H             1 RES     
    7672 C           43.4402    49.2228     1.6071 C             1 RES     
    7673 H           42.7746    50.0521     1.3678 H             1 RES     
    7674 H           42.9283    48.2792     1.4181 H             1 RES     
    7675 C           44.7015    49.3072     0.7275 C             1 RES     
    7676 H           45.3671    48.4778     0.9667 H             1 RES     
    7677 H           45.2134    50.2507     0.9165 H             1 RES     
    7678 C           44.2991    49.2302    -0.7570 C             1 RES     
    7679 H           43.6335    50.0595    -0.9962 H             1 RES     
    7680 H           43.7872    48.2866    -0.9459 H             1 RES     
    7681 C           45.5604    49.3145    -1.6365 C             1 RES     
    7682 H           46.2260    48.4852    -1.3973 H             1 RES     
    7683 H           46.0723    50.2581    -1.4476 H             1 RES     
    7684 C           45.1580    49.2376    -3.1210 C             1 RES     
    7685 H           44.4924    50.0669    -3.3603 H             1 RES     
    7686 H           44.6460    48.2940    -3.3100 H             1 RES     
    7687 C           46.4193    49.3219    -4.0006 C             1 RES     
    7688 H           47.0849    48.4926    -3.7614 H             1 RES     
    7689 H           46.9312    50.2655    -3.8117 H             1 RES     
    7690 C           46.0169    49.2449    -5.4851 C             1 RES     
    7691 H           45.3512    50.0743    -5.7243 H             1 RES     
    7692 H           45.5049    48.3014    -5.6740 H             1 RES     
    7693 C           47.2781    49.3293    -6.3647 C             1 RES     
    7694 H           47.9438    48.5000    -6.1254 H             1 RES     
    7695 H           47.7901    50.2729    -6.1757 H             1 RES     
    7696 C           46.8757    49.2523    -7.8492 C             1 RES     
    7697 H           46.2101    50.0817    -8.0884 H             1 RES     
    7698 H           46.3638    48.3087    -8.0381 H             1 RES     
    7699 C           48.1370    49.3367    -8.7287 C             1 RES     
    7700 H           48.8026    48.5074    -8.4895 H             1 RES     
    7701 H           48.6490    50.2803    -8.5398 H             1 RES     
    7702 C           47.7346    49.2597   -10.2132 C             1 RES     
    7703 H           47.0690    50.0891   -10.4525 H             1 RES     
    7704 H           47.2227    48.3161   -10.4022 H             1 RES     
    7705 C           48.9959    49.3441   -11.0928 C             1 RES     
    7706 H           49.6615    48.5147   -10.8536 H             1 RES     
    7707 H           49.5078    50.2877   -10.9039 H             1 RES     
    7708 C           48.5935    49.2671   -12.5773 C             1 RES     
    7709 H           47.9279    50.0964   -12.8165 H             1 RES     
    7710 H           48.0816    48.3235   -12.7662 H             1 RES     
    7711 C           49.8548    49.3515   -13.4569 C             1 RES     
    7712 H           50.5204    48.5221   -13.2176 H             1 RES     
    7713 H           50.3667    50.2950   -13.2679 H             1 RES     
    7714 C           49.4524    49.2745   -14.9414 C             1 RES     
    7715 H           48.7867    50.1038   -15.1806 H             1 RES     
    7716 H           48.9404    48.3309   -15.1303 H             1 RES     
    7717 C           50.7137    49.3589   -15.8209 C             1 RES     
    7718 H           51.3793    48.5295   -15.5817 H             1 RES     
    7719 H           51.2256    50.3024   -15.6320 H             1 RES     
    7720 C           50.3112    49.2819   -17.3054 C             1 RES     
    7721 H           49.6456    50.1112   -17.5446 H             1 RES     
    7722 H           49.7993    48.3383   -17.4944 H             1 RES     
    7723 C           51.5725    49.3662   -18.1850 C             1 RES     
    7724 H           52.2382    48.5369   -17.9457 H             1 RES     
    7725 H           52.0845    50.3098   -17.9960 H             1 RES     
    7726 C           51.1701    49.2892   -19.6695 C             1 RES     
    7727 H           50.5045    50.1186   -19.9087 H             1 RES     
    7728 H           50.6582    48.3457   -19.8584 H             1 RES     
    7729 O           43.8178    49.2950     3.0000 O             1 RES     
    7730 H           43.9741    48.4006     3.3118 H             1 RES     
    7731 C           30.4591    22.2406   -20.5091 C             1 RES     
    7732 H           30.3347    23.3029   -20.5393 H             1 RES     
    7733 H           30.7600    21.8887   -21.4739 H             1 RES     
    7734 H           31.2093    21.9893   -19.7877 H             1 RES     
    7735 C           21.5337    21.8253     1.6071 C             1 RES     
    7736 H           20.8434    22.6343     1.3678 H             1 RES     
    7737 H           21.0503    20.8668     1.4181 H             1 RES     
    7738 C           22.7918    21.9476     0.7275 C             1 RES     
    7739 H           23.4821    21.1386     0.9667 H             1 RES     
    7740 H           23.2752    22.9061     0.9165 H             1 RES     
    7741 C           22.3919    21.8585    -0.7570 C             1 RES     
    7742 H           21.7017    22.6675    -0.9962 H             1 RES     
    7743 H           21.9086    20.9000    -0.9459 H             1 RES     
    7744 C           23.6501    21.9807    -1.6365 C             1 RES     
    7745 H           24.3403    21.1718    -1.3973 H             1 RES     
    7746 H           24.1335    22.9393    -1.4476 H             1 RES     
    7747 C           23.2502    21.8917    -3.1210 C             1 RES     
    7748 H           22.5600    22.7007    -3.3603 H             1 RES     
    7749 H           22.7668    20.9332    -3.3100 H             1 RES     
    7750 C           24.5084    22.0139    -4.0006 C             1 RES     
    7751 H           25.1986    21.2049    -3.7614 H             1 RES     
    7752 H           24.9917    22.9724    -3.8117 H             1 RES     
    7753 C           24.1085    21.9249    -5.4851 C             1 RES     
    7754 H           23.4182    22.7338    -5.7243 H             1 RES     
    7755 H           23.6251    20.9663    -5.6740 H             1 RES     
    7756 C           25.3666    22.0471    -6.3647 C             1 RES     
    7757 H           26.0569    21.2381    -6.1254 H             1 RES     
    7758 H           25.8500    23.0056    -6.1757 H             1 RES     
    7759 C           24.9667    21.9580    -7.8492 C             1 RES     
    7760 H           24.2765    22.7670    -8.0884 H             1 RES     
    7761 H           24.4834    20.9995    -8.0381 H             1 RES     
    7762 C           26.2249    22.0803    -8.7287 C             1 RES     
    7763 H           26.9151    21.2713    -8.4895 H             1 RES     
    7764 H           26.7083    23.0388    -8.5398 H             1 RES     
    7765 C           25.8250    21.9912   -10.2132 C             1 RES     
    7766 H           25.1348    22.8002   -10.4525 H             1 RES     
    7767 H           25.3416    21.0327   -10.4022 H             1 RES     
    7768 C           27.0832    22.1134   -11.0928 C             1 RES     
    7769 H           27.7734    21.3044   -10.8536 H             1 RES     
    7770 H           27.5666    23.0719   -10.9039 H             1 RES     
    7771 C           26.6833    22.0244   -12.5773 C             1 RES     
    7772 H           25.9930    22.8334   -12.8165 H             1 RES     
    7773 H           26.1999    21.0659   -12.7662 H             1 RES     
    7774 C           27.9415    22.1466   -13.4569 C             1 RES     
    7775 H           28.6317    21.3376   -13.2176 H             1 RES     
    7776 H           28.4248    23.1051   -13.2679 H             1 RES     
    7777 C           27.5415    22.0576   -14.9414 C             1 RES     
    7778 H           26.8513    22.8665   -15.1806 H             1 RES     
    7779 H           27.0582    21.0990   -15.1303 H             1 RES     
    7780 C           28.7997    22.1798   -15.8209 C             1 RES     
    7781 H           29.4899    21.3708   -15.5817 H             1 RES     
    7782 H           29.2831    23.1383   -15.6320 H             1 RES     
    7783 C           28.3998    22.0907   -17.3054 C             1 RES     
    7784 H           27.7096    22.8997   -17.5446 H             1 RES     
    7785 H           27.9164    21.1322   -17.4944 H             1 RES     
    7786 C           29.6580    22.2129   -18.1850 C             1 RES     
    7787 H           30.3482    21.4040   -17.9457 H             1 RES     
    7788 H           30.1414    23.1715   -17.9960 H             1 RES     
    7789 C           29.2581    22.1239   -19.6695 C             1 RES     
    7790 H           28.5678    22.9329   -19.9087 H             1 RES     
    7791 H           28.7747    21.1654   -19.8584 H             1 RES     
    7792 O           21.9089    21.9089     3.0000 O             1 RES     
    7793 H           22.0920    21.0196     3.3118 H             1 RES     
    7794 C           24.9687    11.5332   -20.5091 C             1 RES     
    7795 H           24.8137    12.5915   -20.5393 H             1 RES     
    7796 H           25.2797    11.1903   -21.4739 H             1 RES     
    7797 H           25.7258    11.3038   -19.7877 H             1 RES     
    7798 C           16.0590    10.8601     1.6071 C             1 RES     
    7799 H           15.3457    11.6488     1.3678 H             1 RES     
    7800 H           15.6036     9.8880     1.4181 H             1 RES     
    7801 C           17.3131    11.0186     0.7275 C             1 RES     
    7802 H           18.0265    10.2300     0.9667 H             1 RES     
    7803 H           17.7686    11.9907     0.9165 H             1 RES     
    7804 C           16.9160    10.9181    -0.7570 C             1 RES     
    7805 H           16.2026    11.7067    -0.9962 H             1 RES     
    7806 H           16.4605     9.9460    -0.9459 H             1 RES     
    7807 C           18.1701    11.0766    -1.6365 C             1 RES     
    7808 H           18.8834    10.2879    -1.3973 H             1 RES     
    7809 H           18.6255    12.0487    -1.4476 H             1 RES     
    7810 C           17.7729    10.9760    -3.1210 C             1 RES     
    7811 H           17.0596    11.7647    -3.3603 H             1 RES     
    7812 H           17.3175    10.0039    -3.3100 H             1 RES     
    7813 C           19.0270    11.1346    -4.0006 C             1 RES     
    7814 H           19.7404    10.3459    -3.7614 H             1 RES     
    7815 H           19.4825    12.1067    -3.8117 H             1 RES     
    7816 C           18.6299    11.0340    -5.4851 C             1 RES     
    7817 H           17.9165    11.8227    -5.7243 H             1 RES     
    7818 H           18.1744    10.0619    -5.6740 H             1 RES     
    7819 C           19.8840    11.1926    -6.3647 C             1 RES     
    7820 H           20.5973    10.4039    -6.1254 H             1 RES     
    7821 H           20.3394    12.1647    -6.1757 H             1 RES     
    7822 C           19.4868    11.0920    -7.8492 C             1 RES     
    7823 H           18.7735    11.8807    -8.0884 H             1 RES     
    7824 H           19.0314    10.1199    -8.0381 H             1 RES     
    7825 C           20.7409    11.2506    -8.7287 C             1 RES     
    7826 H           21.4543    10.4619    -8.4895 H             1 RES     
    7827 H           21.1964    12.2227    -8.5398 H             1 RES     
    7828 C           20.3438    11.1500   -10.2132 C             1 RES     
    7829 H           19.6304    11.9387   -10.4525 H             1 RES     
    7830 H           19.8883    10.1779   -10.4022 H             1 RES     
    7831 C           21.5979    11.3085   -11.0928 C             1 RES     
    7832 H           22.3112    10.5199   -10.8536 H             1 RES     
    7833 H           22.0533    12.2806   -10.9039 H             1 RES     
    7834 C           21.2007    11.2080   -12.5773 C             1 RES     
    7835 H           20.4874    11.9966   -12.8165 H             1 RES     
    7836 H           20.7453    10.2359   -12.7662 H             1 RES     
    7837 C           22.4548    11.3665   -13.4569 C             1 RES     
    7838 H           23.1682    10.5778   -13.2176 H             1 RES     
    7839 H           22.9103    12.3386   -13.2679 H             1 RES     
    7840 C           22.0577    11.2659   -14.9414 C             1 RES     
    7841 H           21.3443    12.0546   -15.1806 H             1 RES     
    7842 H           21.6022    10.2938   -15.1303 H             1 RES     
    7843 C           23.3118    11.4245   -15.8209 C             1 RES     
    7844 H           24.0251    10.6358   -15.5817 H             1 RES     
    7845 H           23.7672    12.3966   -15.6320 H             1 RES     
    7846 C           22.9146    11.3239   -17.3054 C             1 RES     
    7847 H           22.2013    12.1126   -17.5446 H             1 RES     
    7848 H           22.4592    10.3518   -17.4944 H             1 RES     
    7849 C           24.1687    11.4825   -18.1850 C             1 RES     
    7850 H           24.8821    10.6938   -17.9457 H             1 RES     
    7851 H           24.6242    12.4546   -17.9960 H             1 RES     
    7852 C           23.7716    11.3819   -19.6695 C             1 RES     
    7853 H           23.0582    12.1706   -19.9087 H             1 RES     
    7854 H           23.3161    10.4098   -19.8584 H             1 RES     
    7855 O           16.4317    10.9545     3.0000 O             1 RES     
    7856 H           16.6404    10.0708     3.3118 H             1 RES     
    7857 C           41.2019     3.5580   -20.5091 C             1 RES     
    7858 H           41.3602     4.6158   -20.5393 H             1 RES     
    7859 H           41.4002     3.1397   -21.4739 H             1 RES     
    7860 H           41.8602     3.1191   -19.7877 H             1 RES     
    7861 C           32.4793     5.4949     1.6071 C             1 RES     
    7862 H           32.0251     6.4564     1.3678 H             1 RES     
    7863 H           31.7618     4.6964     1.4181 H             1 RES     
    7864 C           33.7256     5.2833     0.7275 C             1 RES     
    7865 H           34.1799     4.3218     0.9667 H             1 RES     
    7866 H           34.4431     6.0818     0.9165 H             1 RES     
    7867 C           33.3163     5.3021    -0.7570 C             1 RES     
    7868 H           32.8621     6.2636    -0.9962 H             1 RES     
    7869 H           32.5988     4.5036    -0.9459 H             1 RES     
    7870 C           34.5626     5.0905    -1.6365 C             1 RES     
    7871 H           35.0169     4.1290    -1.3973 H             1 RES     
    7872 H           35.2801     5.8890    -1.4476 H             1 RES     
    7873 C           34.1533     5.1093    -3.1210 C             1 RES     
    7874 H           33.6991     6.0709    -3.3603 H             1 RES     
    7875 H           33.4358     4.3109    -3.3100 H             1 RES     
    7876 C           35.3996     4.8978    -4.0006 C             1 RES     
    7877 H           35.8539     3.9363    -3.7614 H             1 RES     
    7878 H           36.1171     5.6962    -3.8117 H             1 RES     
    7879 C           34.9903     4.9166    -5.4851 C             1 RES     
    7880 H           34.5361     5.8781    -5.7243 H             1 RES     
    7881 H           34.2728     4.1181    -5.6740 H             1 RES     
    7882 C           36.2366     4.7050    -6.3647 C             1 RES     
    7883 H           36.6909     3.7435    -6.1254 H             1 RES     
    7884 H           36.9541     5.5035    -6.1757 H             1 RES     
    7885 C           35.8273     4.7238    -7.8492 C             1 RES     
    7886 H           35.3731     5.6853    -8.0884 H             1 RES     
    7887 H           35.1098     3.9253    -8.0381 H             1 RES     
    7888 C           37.0736     4.5122    -8.7287 C             1 RES     
    7889 H           37.5279     3.5507    -8.4895 H             1 RES     
    7890 H           37.7911     5.3107    -8.5398 H             1 RES     
    7891 C           36.6643     4.5310   -10.2132 C             1 RES     
    7892 H           36.2101     5.4926   -10.4525 H             1 RES     
    7893 H           35.9468     3.7326   -10.4022 H             1 RES     
    7894 C           37.9106     4.3195   -11.0928 C             1 RES     
    7895 H           38.3649     3.3580   -10.8536 H             1 RES     
    7896 H           38.6281     5.1179   -10.9039 H             1 RES     
    7897 C           37.5013     4.3383   -12.5773 C             1 RES     
    7898 H           37.0471     5.2998   -12.8165 H             1 RES     
    7899 H           36.7838     3.5398   -12.7662 H             1 RES     
    7900 C           38.7476     4.1267   -13.4569 C             1 RES     
    7901 H           39.2019     3.1652   -13.2176 H             1 RES     
    7902 H           39.4651     4.9252   -13.2679 H             1 RES     
    7903 C           38.3383     4.1455   -14.9414 C             1 RES     
    7904 H           37.8841     5.1070   -15.1806 H             1 RES     
    7905 H           37.6208     3.3470   -15.1303 H             1 RES     
    7906 C           39.5846     3.9339   -15.8209 C             1 RES     
    7907 H           40.0389     2.9724   -15.5817 H             1 RES     
    7908 H           40.3021     4.7324   -15.6320 H             1 RES     
    7909 C           39.1753     3.9527   -17.3054 C             1 RES     
    7910 H           38.7211     4.9143   -17.5446 H             1 RES     
    7911 H           38.4578     3.1543   -17.4944 H             1 RES     
    7912 C           40.4216     3.7412   -18.1850 C             1 RES     
    7913 H           40.8759     2.7797   -17.9457 H             1 RES     
    7914 H           41.1391     4.5396   -17.9960 H             1 RES     
    7915 C           40.0123     3.7600   -19.6695 C             1 RES     
    7916 H           39.5581     4.7215   -19.9087 H             1 RES     
    7917 H           39.2948     2.9615   -19.8584 H             1 RES     
    7918 O           32.8634     5.4772     3.0000 O             1 RES     
    7919 H           32.8072     4.5710     3.3118 H             1 RES     
    7920 C           41.4005    32.2868   -20.5091 C             1 RES     
    7921 H           41.3895    33.3563   -20.5393 H             1 RES     
    7922 H           41.6625    31.9051   -21.4739 H             1 RES     
    7923 H           42.1199    31.9575   -19.7877 H             1 RES     
    7924 C           32.4814    32.8200     1.6071 C             1 RES     
    7925 H           31.8808    33.6976     1.3678 H             1 RES     
    7926 H           31.8991    31.9182     1.4181 H             1 RES     
    7927 C           33.7454    32.8082     0.7275 C             1 RES     
    7928 H           34.3460    31.9306     0.9667 H             1 RES     
    7929 H           34.3277    33.7101     0.9165 H             1 RES     
    7930 C           33.3383    32.7621    -0.7570 C             1 RES     
    7931 H           32.7377    33.6396    -0.9962 H             1 RES     
    7932 H           32.7561    31.8602    -0.9459 H             1 RES     
    7933 C           34.6024    32.7502    -1.6365 C             1 RES     
    7934 H           35.2029    31.8726    -1.3973 H             1 RES     
    7935 H           35.1846    33.6521    -1.4476 H             1 RES     
    7936 C           34.1953    32.7041    -3.1210 C             1 RES     
    7937 H           33.5947    33.5817    -3.3603 H             1 RES     
    7938 H           33.6130    31.8022    -3.3100 H             1 RES     
    7939 C           35.4593    32.6922    -4.0006 C             1 RES     
    7940 H           36.0599    31.8146    -3.7614 H             1 RES     
    7941 H           36.0416    33.5941    -3.8117 H             1 RES     
    7942 C           35.0522    32.6461    -5.4851 C             1 RES     
    7943 H           34.4516    33.5237    -5.7243 H             1 RES     
    7944 H           34.4700    31.7442    -5.6740 H             1 RES     
    7945 C           36.3163    32.6342    -6.3647 C             1 RES     
    7946 H           36.9168    31.7566    -6.1254 H             1 RES     
    7947 H           36.8985    33.5361    -6.1757 H             1 RES     
    7948 C           35.9092    32.5881    -7.8492 C             1 RES     
    7949 H           35.3086    33.4657    -8.0884 H             1 RES     
    7950 H           35.3269    31.6862    -8.0381 H             1 RES     
    7951 C           37.1732    32.5762    -8.7287 C             1 RES     
    7952 H           37.7738    31.6986    -8.4895 H             1 RES     
    7953 H           37.7555    33.4781    -8.5398 H             1 RES     
    7954 C           36.7661    32.5301   -10.2132 C             1 RES     
    7955 H           36.1655    33.4077   -10.4525 H             1 RES     
    7956 H           36.1839    31.6282   -10.4022 H             1 RES     
    7957 C           38.0302    32.5182   -11.0928 C             1 RES     
    7958 H           38.6307    31.6407   -10.8536 H             1 RES     
    7959 H           38.6124    33.4201   -10.9039 H             1 RES     
    7960 C           37.6231    32.4721   -12.5773 C             1 RES     
    7961 H           37.0225    33.3497   -12.8165 H             1 RES     
    7962 H           37.0408    31.5702   -12.7662 H             1 RES     
    7963 C           38.8871    32.4603   -13.4569 C             1 RES     
    7964 H           39.4877    31.5827   -13.2176 H             1 RES     
    7965 H           39.4694    33.3621   -13.2679 H             1 RES     
    7966 C           38.4800    32.4141   -14.9414 C             1 RES     
    7967 H           37.8794    33.2917   -15.1806 H             1 RES     
    7968 H           37.8978    31.5122   -15.1303 H             1 RES     
    7969 C           39.7441    32.4023   -15.8209 C             1 RES     
    7970 H           40.3446    31.5247   -15.5817 H             1 RES     
    7971 H           40.3263    33.3041   -15.6320 H             1 RES     
    7972 C           39.3370    32.3561   -17.3054 C             1 RES     
    7973 H           38.7364    33.2337   -17.5446 H             1 RES     
    7974 H           38.7547    31.4542   -17.4944 H             1 RES     
    7975 C           40.6010    32.3443   -18.1850 C             1 RES     
    7976 H           41.2016    31.4667   -17.9457 H             1 RES     
    7977 H           41.1833    33.2462   -17.9960 H             1 RES     
    7978 C           40.1939    32.2981   -19.6695 C             1 RES     
    7979 H           39.5933    33.1757   -19.9087 H             1 RES     
    7980 H           39.6117    31.3962   -19.8584 H             1 RES     
    7981 O           32.8634    32.8634     3.0000 O             1 RES     
    7982 H           32.9512    31.9596     3.3118 H             1 RES     
    7983 C           41.3690    44.7504   -20.5091 C             1 RES     
    7984 H           41.1702    45.8013   -20.5393 H             1 RES     
    7985 H           41.6939    44.4206   -21.4739 H             1 RES     
    7986 H           42.1350    44.5525   -19.7877 H             1 RES     
    7987 C           32.4949    43.7080     1.6071 C             1 RES     
    7988 H           31.7495    44.4665     1.3678 H             1 RES     
    7989 H           32.0802    42.7179     1.4181 H             1 RES     
    7990 C           33.7414    43.9185     0.7275 C             1 RES     
    7991 H           34.4868    43.1601     0.9667 H             1 RES     
    7992 H           34.1561    44.9087     0.9165 H             1 RES     
    7993 C           33.3487    43.8015    -0.7570 C             1 RES     
    7994 H           32.6033    44.5599    -0.9962 H             1 RES     
    7995 H           32.9340    42.8114    -0.9459 H             1 RES     
    7996 C           34.5952    44.0120    -1.6365 C             1 RES     
    7997 H           35.3406    43.2536    -1.3973 H             1 RES     
    7998 H           35.0099    45.0022    -1.4476 H             1 RES     
    7999 C           34.2025    43.8950    -3.1210 C             1 RES     
    8000 H           33.4571    44.6534    -3.3603 H             1 RES     
    8001 H           33.7878    42.9049    -3.3100 H             1 RES     
    8002 C           35.4490    44.1055    -4.0006 C             1 RES     
    8003 H           36.1944    43.3471    -3.7614 H             1 RES     
    8004 H           35.8637    45.0957    -3.8117 H             1 RES     
    8005 C           35.0563    43.9885    -5.4851 C             1 RES     
    8006 H           34.3109    44.7469    -5.7243 H             1 RES     
    8007 H           34.6416    42.9984    -5.6740 H             1 RES     
    8008 C           36.3028    44.1990    -6.3647 C             1 RES     
    8009 H           37.0482    43.4406    -6.1254 H             1 RES     
    8010 H           36.7175    45.1891    -6.1757 H             1 RES     
    8011 C           35.9101    44.0820    -7.8492 C             1 RES     
    8012 H           35.1647    44.8404    -8.0884 H             1 RES     
    8013 H           35.4954    43.0919    -8.0381 H             1 RES     
    8014 C           37.1566    44.2925    -8.7287 C             1 RES     
    8015 H           37.9021    43.5341    -8.4895 H             1 RES     
    8016 H           37.5713    45.2826    -8.5398 H             1 RES     
    8017 C           36.7639    44.1755   -10.2132 C             1 RES     
    8018 H           36.0185    44.9339   -10.4525 H             1 RES     
    8019 H           36.3492    43.1853   -10.4022 H             1 RES     
    8020 C           38.0104    44.3860   -11.0928 C             1 RES     
    8021 H           38.7559    43.6276   -10.8536 H             1 RES     
    8022 H           38.4251    45.3761   -10.9039 H             1 RES     
    8023 C           37.6178    44.2690   -12.5773 C             1 RES     
    8024 H           36.8723    45.0274   -12.8165 H             1 RES     
    8025 H           37.2030    43.2788   -12.7662 H             1 RES     
    8026 C           38.8642    44.4795   -13.4569 C             1 RES     
    8027 H           39.6097    43.7211   -13.2176 H             1 RES     
    8028 H           39.2789    45.4696   -13.2679 H             1 RES     
    8029 C           38.4716    44.3625   -14.9414 C             1 RES     
    8030 H           37.7261    45.1209   -15.1806 H             1 RES     
    8031 H           38.0568    43.3723   -15.1303 H             1 RES     
    8032 C           39.7180    44.5729   -15.8209 C             1 RES     
    8033 H           40.4635    43.8145   -15.5817 H             1 RES     
    8034 H           40.1327    45.5631   -15.6320 H             1 RES     
    8035 C           39.3254    44.4560   -17.3054 C             1 RES     
    8036 H           38.5799    45.2144   -17.5446 H             1 RES     
    8037 H           38.9107    43.4658   -17.4944 H             1 RES     
    8038 C           40.5718    44.6664   -18.1850 C             1 RES     
    8039 H           41.3173    43.9080   -17.9457 H             1 RES     
    8040 H           40.9865    45.6566   -17.9960 H             1 RES     
    8041 C           40.1792    44.5495   -19.6695 C             1 RES     
    8042 H           39.4337    45.3079   -19.9087 H             1 RES     
    8043 H           39.7645    43.5593   -19.8584 H             1 RES     
    8044 O           32.8634    43.8178     3.0000 O             1 RES     
    8045 H           33.1086    42.9436     3.3118 H             1 RES     
    8046 C           35.6907    41.7564   -20.5091 C             1 RES     
    8047 H           35.8670    42.8114   -20.5393 H             1 RES     
    8048 H           35.8818    41.3348   -21.4739 H             1 RES     
    8049 H           36.3413    41.3063   -19.7877 H             1 RES     
    8050 C           27.0025    43.8420     1.6071 C             1 RES     
    8051 H           26.5647    44.8111     1.3678 H             1 RES     
    8052 H           26.2714    43.0559     1.4181 H             1 RES     
    8053 C           28.2449    43.6092     0.7275 C             1 RES     
    8054 H           28.6827    42.6400     0.9667 H             1 RES     
    8055 H           28.9760    44.3953     0.9165 H             1 RES     
    8056 C           27.8360    43.6350    -0.7570 C             1 RES     
    8057 H           27.3983    44.6041    -0.9962 H             1 RES     
    8058 H           27.1050    42.8489    -0.9459 H             1 RES     
    8059 C           29.0785    43.4021    -1.6365 C             1 RES     
    8060 H           29.5163    42.4330    -1.3973 H             1 RES     
    8061 H           29.8096    44.1882    -1.4476 H             1 RES     
    8062 C           28.6696    43.4279    -3.1210 C             1 RES     
    8063 H           28.2319    44.3971    -3.3603 H             1 RES     
    8064 H           27.9386    42.6418    -3.3100 H             1 RES     
    8065 C           29.9121    43.1951    -4.0006 C             1 RES     
    8066 H           30.3499    42.2260    -3.7614 H             1 RES     
    8067 H           30.6432    43.9812    -3.8117 H             1 RES     
    8068 C           29.5032    43.2209    -5.4851 C             1 RES     
    8069 H           29.0654    44.1900    -5.7243 H             1 RES     
    8070 H           28.7721    42.4348    -5.6740 H             1 RES     
    8071 C           30.7457    42.9881    -6.3647 C             1 RES     
    8072 H           31.1835    42.0189    -6.1254 H             1 RES     
    8073 H           31.4768    43.7742    -6.1757 H             1 RES     
    8074 C           30.3368    43.0139    -7.8492 C             1 RES     
    8075 H           29.8990    43.9830    -8.0884 H             1 RES     
    8076 H           29.6057    42.2278    -8.0381 H             1 RES     
    8077 C           31.5793    42.7810    -8.7287 C             1 RES     
    8078 H           32.0170    41.8119    -8.4895 H             1 RES     
    8079 H           32.3103    43.5671    -8.5398 H             1 RES     
    8080 C           31.1704    42.8068   -10.2132 C             1 RES     
    8081 H           30.7326    43.7760   -10.4525 H             1 RES     
    8082 H           30.4393    42.0207   -10.4022 H             1 RES     
    8083 C           32.4129    42.5740   -11.0928 C             1 RES     
    8084 H           32.8506    41.6049   -10.8536 H             1 RES     
    8085 H           33.1439    43.3601   -10.9039 H             1 RES     
    8086 C           32.0040    42.5998   -12.5773 C             1 RES     
    8087 H           31.5662    43.5689   -12.8165 H             1 RES     
    8088 H           31.2729    41.8137   -12.7662 H             1 RES     
    8089 C           33.2464    42.3670   -13.4569 C             1 RES     
    8090 H           33.6842    41.3978   -13.2176 H             1 RES     
    8091 H           33.9775    43.1531   -13.2679 H             1 RES     
    8092 C           32.8375    42.3928   -14.9414 C             1 RES     
    8093 H           32.3998    43.3619   -15.1806 H             1 RES     
    8094 H           32.1065    41.6067   -15.1303 H             1 RES     
    8095 C           34.0800    42.1599   -15.8209 C             1 RES     
    8096 H           34.5178    41.1908   -15.5817 H             1 RES     
    8097 H           34.8111    42.9460   -15.6320 H             1 RES     
    8098 C           33.6711    42.1857   -17.3054 C             1 RES     
    8099 H           33.2334    43.1549   -17.5446 H             1 RES     
    8100 H           32.9401    41.3996   -17.4944 H             1 RES     
    8101 C           34.9136    41.9529   -18.1850 C             1 RES     
    8102 H           35.3514    40.9838   -17.9457 H             1 RES     
    8103 H           35.6447    42.7390   -17.9960 H             1 RES     
    8104 C           34.5047    41.9787   -19.6695 C             1 RES     
    8105 H           34.0669    42.9478   -19.9087 H             1 RES     
    8106 H           33.7736    41.1926   -19.8584 H             1 RES     
    8107 O           27.3861    43.8178     3.0000 O             1 RES     
    8108 H           27.3145    42.9127     3.3118 H             1 RES     
    8109 C            8.4856    17.5318   -20.5091 C             1 RES     
    8110 H            8.2661    18.5786   -20.5393 H             1 RES     
    8111 H            8.8170    17.2085   -21.4739 H             1 RES     
    8112 H            9.2554    17.3491   -19.7877 H             1 RES     
    8113 C           -0.3662    16.3147     1.6071 C             1 RES     
    8114 H           -1.1265    17.0582     1.3678 H             1 RES     
    8115 H           -0.7613    15.3165     1.4181 H             1 RES     
    8116 C            0.8759    16.5497     0.7275 C             1 RES     
    8117 H            1.6361    15.8061     0.9667 H             1 RES     
    8118 H            1.2710    17.5478     0.9165 H             1 RES     
    8119 C            0.4856    16.4250    -0.7570 C             1 RES     
    8120 H           -0.2747    17.1685    -0.9962 H             1 RES     
    8121 H            0.0905    15.4268    -0.9459 H             1 RES     
    8122 C            1.7277    16.6600    -1.6365 C             1 RES     
    8123 H            2.4879    15.9164    -1.3973 H             1 RES     
    8124 H            2.1228    17.6581    -1.4476 H             1 RES     
    8125 C            1.3374    16.5353    -3.1210 C             1 RES     
    8126 H            0.5771    17.2789    -3.3603 H             1 RES     
    8127 H            0.9423    15.5372    -3.3100 H             1 RES     
    8128 C            2.5795    16.7703    -4.0006 C             1 RES     
    8129 H            3.3397    16.0268    -3.7614 H             1 RES     
    8130 H            2.9746    17.7685    -3.8117 H             1 RES     
    8131 C            2.1892    16.6456    -5.4851 C             1 RES     
    8132 H            1.4289    17.3892    -5.7243 H             1 RES     
    8133 H            1.7941    15.6475    -5.6740 H             1 RES     
    8134 C            3.4313    16.8806    -6.3647 C             1 RES     
    8135 H            4.1915    16.1371    -6.1254 H             1 RES     
    8136 H            3.8264    17.8788    -6.1757 H             1 RES     
    8137 C            3.0410    16.7559    -7.8492 C             1 RES     
    8138 H            2.2807    17.4995    -8.0884 H             1 RES     
    8139 H            2.6459    15.7578    -8.0381 H             1 RES     
    8140 C            4.2831    16.9909    -8.7287 C             1 RES     
    8141 H            5.0433    16.2474    -8.4895 H             1 RES     
    8142 H            4.6782    17.9891    -8.5398 H             1 RES     
    8143 C            3.8928    16.8662   -10.2132 C             1 RES     
    8144 H            3.1325    17.6098   -10.4525 H             1 RES     
    8145 H            3.4977    15.8681   -10.4022 H             1 RES     
    8146 C            5.1349    17.1013   -11.0928 C             1 RES     
    8147 H            5.8951    16.3577   -10.8536 H             1 RES     
    8148 H            5.5300    18.0994   -10.9039 H             1 RES     
    8149 C            4.7446    16.9766   -12.5773 C             1 RES     
    8150 H            3.9843    17.7201   -12.8165 H             1 RES     
    8151 H            4.3495    15.9784   -12.7662 H             1 RES     
    8152 C            5.9866    17.2116   -13.4569 C             1 RES     
    8153 H            6.7469    16.4680   -13.2176 H             1 RES     
    8154 H            6.3817    18.2097   -13.2679 H             1 RES     
    8155 C            5.5964    17.0869   -14.9414 C             1 RES     
    8156 H            4.8361    17.8304   -15.1806 H             1 RES     
    8157 H            5.2013    16.0887   -15.1303 H             1 RES     
    8158 C            6.8384    17.3219   -15.8209 C             1 RES     
    8159 H            7.5987    16.5783   -15.5817 H             1 RES     
    8160 H            7.2335    18.3200   -15.6320 H             1 RES     
    8161 C            6.4482    17.1972   -17.3054 C             1 RES     
    8162 H            5.6879    17.9407   -17.5446 H             1 RES     
    8163 H            6.0531    16.1990   -17.4944 H             1 RES     
    8164 C            7.6902    17.4322   -18.1850 C             1 RES     
    8165 H            8.4505    16.6886   -17.9457 H             1 RES     
    8166 H            8.0853    18.4303   -17.9960 H             1 RES     
    8167 C            7.3000    17.3075   -19.6695 C             1 RES     
    8168 H            6.5397    18.0511   -19.9087 H             1 RES     
    8169 H            6.9049    16.3094   -19.8584 H             1 RES     
    8170 O            0.0000    16.4317     3.0000 O             1 RES     
    8171 H            0.2625    15.5625     3.3118 H             1 RES     
    8172 C           30.4250     6.3088   -20.5091 C             1 RES     
    8173 H           30.2387     7.3620   -20.5393 H             1 RES     
    8174 H           30.7460     5.9752   -21.4739 H             1 RES     
    8175 H           31.1886     6.1019   -19.7877 H             1 RES     
    8176 C           21.5392     5.3718     1.6071 C             1 RES     
    8177 H           20.8028     6.1390     1.3678 H             1 RES     
    8178 H           21.1128     4.3867     1.4181 H             1 RES     
    8179 C           22.7881     5.5675     0.7275 C             1 RES     
    8180 H           23.5245     4.8003     0.9667 H             1 RES     
    8181 H           23.2145     6.5527     0.9165 H             1 RES     
    8182 C           22.3940     5.4552    -0.7570 C             1 RES     
    8183 H           21.6577     6.2224    -0.9962 H             1 RES     
    8184 H           21.9676     4.4700    -0.9459 H             1 RES     
    8185 C           23.6429     5.6509    -1.6365 C             1 RES     
    8186 H           24.3793     4.8837    -1.3973 H             1 RES     
    8187 H           24.0694     6.6360    -1.4476 H             1 RES     
    8188 C           23.2489     5.5386    -3.1210 C             1 RES     
    8189 H           22.5125     6.3058    -3.3603 H             1 RES     
    8190 H           22.8225     4.5534    -3.3100 H             1 RES     
    8191 C           24.4978     5.7342    -4.0006 C             1 RES     
    8192 H           25.2342     4.9670    -3.7614 H             1 RES     
    8193 H           24.9242     6.7194    -3.8117 H             1 RES     
    8194 C           24.1038     5.6219    -5.4851 C             1 RES     
    8195 H           23.3674     6.3891    -5.7243 H             1 RES     
    8196 H           23.6773     4.6367    -5.6740 H             1 RES     
    8197 C           25.3526     5.8176    -6.3647 C             1 RES     
    8198 H           26.0890     5.0504    -6.1254 H             1 RES     
    8199 H           25.7791     6.8027    -6.1757 H             1 RES     
    8200 C           24.9586     5.7053    -7.8492 C             1 RES     
    8201 H           24.2222     6.4725    -8.0884 H             1 RES     
    8202 H           24.5322     4.7201    -8.0381 H             1 RES     
    8203 C           26.2075     5.9009    -8.7287 C             1 RES     
    8204 H           26.9439     5.1337    -8.4895 H             1 RES     
    8205 H           26.6339     6.8861    -8.5398 H             1 RES     
    8206 C           25.8135     5.7886   -10.2132 C             1 RES     
    8207 H           25.0771     6.5558   -10.4525 H             1 RES     
    8208 H           25.3870     4.8034   -10.4022 H             1 RES     
    8209 C           27.0623     5.9843   -11.0928 C             1 RES     
    8210 H           27.7987     5.2171   -10.8536 H             1 RES     
    8211 H           27.4888     6.9694   -10.9039 H             1 RES     
    8212 C           26.6683     5.8720   -12.5773 C             1 RES     
    8213 H           25.9319     6.6392   -12.8165 H             1 RES     
    8214 H           26.2419     4.8868   -12.7662 H             1 RES     
    8215 C           27.9172     6.0676   -13.4569 C             1 RES     
    8216 H           28.6536     5.3004   -13.2176 H             1 RES     
    8217 H           28.3436     7.0528   -13.2679 H             1 RES     
    8218 C           27.5232     5.9553   -14.9414 C             1 RES     
    8219 H           26.7868     6.7225   -15.1806 H             1 RES     
    8220 H           27.0967     4.9702   -15.1303 H             1 RES     
    8221 C           28.7721     6.1510   -15.8209 C             1 RES     
    8222 H           29.5084     5.3838   -15.5817 H             1 RES     
    8223 H           29.1985     7.1361   -15.6320 H             1 RES     
    8224 C           28.3780     6.0387   -17.3054 C             1 RES     
    8225 H           27.6416     6.8059   -17.5446 H             1 RES     
    8226 H           27.9516     5.0535   -17.4944 H             1 RES     
    8227 C           29.6269     6.2343   -18.1850 C             1 RES     
    8228 H           30.3633     5.4671   -17.9457 H             1 RES     
    8229 H           30.0533     7.2195   -17.9960 H             1 RES     
    8230 C           29.2329     6.1220   -19.6695 C             1 RES     
    8231 H           28.4965     6.8892   -19.9087 H             1 RES     
    8232 H           28.8065     5.1369   -19.8584 H             1 RES     
    8233 O           21.9089     5.4772     3.0000 O             1 RES     
    8234 H           22.1438     4.6002     3.3118 H             1 RES     
    8235 C           30.4542    15.9919   -20.5091 C             1 RES     
    8236 H           30.4261    17.0611   -20.5393 H             1 RES     
    8237 H           30.7222    15.6144   -21.4739 H             1 RES     
    8238 H           31.1787    15.6741   -19.7877 H             1 RES     
    8239 C           21.5277    16.3823     1.6071 C             1 RES     
    8240 H           20.9131    17.2501     1.3678 H             1 RES     
    8241 H           20.9599    15.4712     1.4181 H             1 RES     
    8242 C           22.7917    16.3907     0.7275 C             1 RES     
    8243 H           23.4063    15.5228     0.9667 H             1 RES     
    8244 H           23.3595    17.3017     0.9165 H             1 RES     
    8245 C           22.3854    16.3380    -0.7570 C             1 RES     
    8246 H           21.7709    17.2059    -0.9962 H             1 RES     
    8247 H           21.8177    15.4269    -0.9459 H             1 RES     
    8248 C           23.6495    16.3464    -1.6365 C             1 RES     
    8249 H           24.2641    15.4785    -1.3973 H             1 RES     
    8250 H           24.2172    17.2575    -1.4476 H             1 RES     
    8251 C           23.2432    16.2937    -3.1210 C             1 RES     
    8252 H           22.6286    17.1616    -3.3603 H             1 RES     
    8253 H           22.6755    15.3826    -3.3100 H             1 RES     
    8254 C           24.5073    16.3021    -4.0006 C             1 RES     
    8255 H           25.1218    15.4343    -3.7614 H             1 RES     
    8256 H           25.0750    17.2132    -3.8117 H             1 RES     
    8257 C           24.1010    16.2495    -5.4851 C             1 RES     
    8258 H           23.4864    17.1173    -5.7243 H             1 RES     
    8259 H           23.5332    15.3384    -5.6740 H             1 RES     
    8260 C           25.3650    16.2579    -6.3647 C             1 RES     
    8261 H           25.9796    15.3900    -6.1254 H             1 RES     
    8262 H           25.9328    17.1689    -6.1757 H             1 RES     
    8263 C           24.9587    16.2052    -7.8492 C             1 RES     
    8264 H           24.3442    17.0731    -8.0884 H             1 RES     
    8265 H           24.3910    15.2941    -8.0381 H             1 RES     
    8266 C           26.2228    16.2136    -8.7287 C             1 RES     
    8267 H           26.8374    15.3457    -8.4895 H             1 RES     
    8268 H           26.7905    17.1247    -8.5398 H             1 RES     
    8269 C           25.8165    16.1609   -10.2132 C             1 RES     
    8270 H           25.2019    17.0288   -10.4525 H             1 RES     
    8271 H           25.2488    15.2498   -10.4022 H             1 RES     
    8272 C           27.0806    16.1693   -11.0928 C             1 RES     
    8273 H           27.6951    15.3015   -10.8536 H             1 RES     
    8274 H           27.6483    17.0804   -10.9039 H             1 RES     
    8275 C           26.6743    16.1167   -12.5773 C             1 RES     
    8276 H           26.0597    16.9845   -12.8165 H             1 RES     
    8277 H           26.1065    15.2056   -12.7662 H             1 RES     
    8278 C           27.9383    16.1251   -13.4569 C             1 RES     
    8279 H           28.5529    15.2572   -13.2176 H             1 RES     
    8280 H           28.5061    17.0361   -13.2679 H             1 RES     
    8281 C           27.5320    16.0724   -14.9414 C             1 RES     
    8282 H           26.9175    16.9403   -15.1806 H             1 RES     
    8283 H           26.9643    15.1613   -15.1303 H             1 RES     
    8284 C           28.7961    16.0808   -15.8209 C             1 RES     
    8285 H           29.4107    15.2129   -15.5817 H             1 RES     
    8286 H           29.3638    16.9919   -15.6320 H             1 RES     
    8287 C           28.3898    16.0281   -17.3054 C             1 RES     
    8288 H           27.7752    16.8960   -17.5446 H             1 RES     
    8289 H           27.8221    15.1170   -17.4944 H             1 RES     
    8290 C           29.6539    16.0365   -18.1850 C             1 RES     
    8291 H           30.2684    15.1687   -17.9457 H             1 RES     
    8292 H           30.2216    16.9476   -17.9960 H             1 RES     
    8293 C           29.2476    15.9839   -19.6695 C             1 RES     
    8294 H           28.6330    16.8517   -19.9087 H             1 RES     
    8295 H           28.6798    15.0728   -19.8584 H             1 RES     
    8296 O           21.9089    16.4317     3.0000 O             1 RES     
    8297 H           22.0112    15.5295     3.3118 H             1 RES     
    8298 C           57.8486    21.6812   -20.5091 C             1 RES     
    8299 H           57.7939    22.7494   -20.5393 H             1 RES     
    8300 H           58.1259    21.3105   -21.4739 H             1 RES     
    8301 H           58.5808    21.3815   -19.7877 H             1 RES     
    8302 C           48.9151    21.8500     1.6071 C             1 RES     
    8303 H           48.2792    22.7024     1.3678 H             1 RES     
    8304 H           48.3702    20.9252     1.4181 H             1 RES     
    8305 C           50.1786    21.8898     0.7275 C             1 RES     
    8306 H           50.8145    21.0374     0.9667 H             1 RES     
    8307 H           50.7236    22.8147     0.9165 H             1 RES     
    8308 C           49.7737    21.8271    -0.7570 C             1 RES     
    8309 H           49.1378    22.6794    -0.9962 H             1 RES     
    8310 H           49.2288    20.9022    -0.9459 H             1 RES     
    8311 C           51.0372    21.8668    -1.6365 C             1 RES     
    8312 H           51.6731    21.0145    -1.3973 H             1 RES     
    8313 H           51.5822    22.7917    -1.4476 H             1 RES     
    8314 C           50.6323    21.8041    -3.1210 C             1 RES     
    8315 H           49.9964    22.6564    -3.3603 H             1 RES     
    8316 H           50.0874    20.8792    -3.3100 H             1 RES     
    8317 C           51.8958    21.8438    -4.0006 C             1 RES     
    8318 H           52.5317    20.9915    -3.7614 H             1 RES     
    8319 H           52.4408    22.7687    -3.8117 H             1 RES     
    8320 C           51.4909    21.7811    -5.4851 C             1 RES     
    8321 H           50.8550    22.6335    -5.7243 H             1 RES     
    8322 H           50.9460    20.8562    -5.6740 H             1 RES     
    8323 C           52.7544    21.8209    -6.3647 C             1 RES     
    8324 H           53.3903    20.9685    -6.1254 H             1 RES     
    8325 H           53.2994    22.7458    -6.1757 H             1 RES     
    8326 C           52.3495    21.7581    -7.8492 C             1 RES     
    8327 H           51.7136    22.6105    -8.0884 H             1 RES     
    8328 H           51.8046    20.8333    -8.0381 H             1 RES     
    8329 C           53.6130    21.7979    -8.7287 C             1 RES     
    8330 H           54.2489    20.9455    -8.4895 H             1 RES     
    8331 H           54.1580    22.7228    -8.5398 H             1 RES     
    8332 C           53.2081    21.7352   -10.2132 C             1 RES     
    8333 H           52.5722    22.5875   -10.4525 H             1 RES     
    8334 H           52.6632    20.8103   -10.4022 H             1 RES     
    8335 C           54.4716    21.7749   -11.0928 C             1 RES     
    8336 H           55.1075    20.9226   -10.8536 H             1 RES     
    8337 H           55.0166    22.6998   -10.9039 H             1 RES     
    8338 C           54.0667    21.7122   -12.5773 C             1 RES     
    8339 H           53.4308    22.5645   -12.8165 H             1 RES     
    8340 H           53.5218    20.7873   -12.7662 H             1 RES     
    8341 C           55.3302    21.7519   -13.4569 C             1 RES     
    8342 H           55.9661    20.8996   -13.2176 H             1 RES     
    8343 H           55.8752    22.6768   -13.2679 H             1 RES     
    8344 C           54.9253    21.6892   -14.9414 C             1 RES     
    8345 H           54.2894    22.5416   -15.1806 H             1 RES     
    8346 H           54.3804    20.7643   -15.1303 H             1 RES     
    8347 C           56.1888    21.7290   -15.8209 C             1 RES     
    8348 H           56.8247    20.8766   -15.5817 H             1 RES     
    8349 H           56.7338    22.6539   -15.6320 H             1 RES     
    8350 C           55.7839    21.6662   -17.3054 C             1 RES     
    8351 H           55.1481    22.5186   -17.5446 H             1 RES     
    8352 H           55.2390    20.7413   -17.4944 H             1 RES     
    8353 C           57.0474    21.7060   -18.1850 C             1 RES     
    8354 H           57.6833    20.8536   -17.9457 H             1 RES     
    8355 H           57.5924    22.6309   -17.9960 H             1 RES     
    8356 C           56.6425    21.6433   -19.6695 C             1 RES     
    8357 H           56.0067    22.4956   -19.9087 H             1 RES     
    8358 H           56.0976    20.7184   -19.8584 H             1 RES     
    8359 O           49.2950    21.9089     3.0000 O             1 RES     
    8360 H           49.4197    21.0095     3.3118 H             1 RES     
    8361 C            8.4915    48.2419   -20.5091 C             1 RES     
    8362 H            8.5404    49.3104   -20.5393 H             1 RES     
    8363 H            8.7317    47.8461   -21.4739 H             1 RES     
    8364 H            9.1913    47.8728   -19.7877 H             1 RES     
    8365 C           -0.3838    49.2732     1.6071 C             1 RES     
    8366 H           -0.9344    50.1830     1.3678 H             1 RES     
    8367 H           -1.0156    48.4053     1.4181 H             1 RES     
    8368 C            0.8776    49.1906     0.7275 C             1 RES     
    8369 H            1.4282    48.2808     0.9667 H             1 RES     
    8370 H            1.5094    50.0585     0.9165 H             1 RES     
    8371 C            0.4686    49.1673    -0.7570 C             1 RES     
    8372 H           -0.0820    50.0771    -0.9962 H             1 RES     
    8373 H           -0.1632    48.2994    -0.9459 H             1 RES     
    8374 C            1.7300    49.0848    -1.6365 C             1 RES     
    8375 H            2.2805    48.1750    -1.3973 H             1 RES     
    8376 H            2.3617    49.9527    -1.4476 H             1 RES     
    8377 C            1.3209    49.0615    -3.1210 C             1 RES     
    8378 H            0.7704    49.9713    -3.3603 H             1 RES     
    8379 H            0.6891    48.1936    -3.3100 H             1 RES     
    8380 C            2.5823    48.9790    -4.0006 C             1 RES     
    8381 H            3.1329    48.0692    -3.7614 H             1 RES     
    8382 H            3.2141    49.8469    -3.8117 H             1 RES     
    8383 C            2.1733    48.9557    -5.4851 C             1 RES     
    8384 H            1.6227    49.8655    -5.7243 H             1 RES     
    8385 H            1.5415    48.0878    -5.6740 H             1 RES     
    8386 C            3.4347    48.8731    -6.3647 C             1 RES     
    8387 H            3.9852    47.9633    -6.1254 H             1 RES     
    8388 H            4.0665    49.7410    -6.1757 H             1 RES     
    8389 C            3.0256    48.8498    -7.8492 C             1 RES     
    8390 H            2.4751    49.7596    -8.0884 H             1 RES     
    8391 H            2.3939    47.9819    -8.0381 H             1 RES     
    8392 C            4.2871    48.7673    -8.7287 C             1 RES     
    8393 H            4.8376    47.8575    -8.4895 H             1 RES     
    8394 H            4.9188    49.6352    -8.5398 H             1 RES     
    8395 C            3.8780    48.7440   -10.2132 C             1 RES     
    8396 H            3.3275    49.6538   -10.4525 H             1 RES     
    8397 H            3.2462    47.8761   -10.4022 H             1 RES     
    8398 C            5.1394    48.6615   -11.0928 C             1 RES     
    8399 H            5.6900    47.7517   -10.8536 H             1 RES     
    8400 H            5.7712    49.5294   -10.9039 H             1 RES     
    8401 C            4.7304    48.6382   -12.5773 C             1 RES     
    8402 H            4.1798    49.5480   -12.8165 H             1 RES     
    8403 H            4.0986    47.7703   -12.7662 H             1 RES     
    8404 C            5.9918    48.5556   -13.4569 C             1 RES     
    8405 H            6.5423    47.6458   -13.2176 H             1 RES     
    8406 H            6.6236    49.4235   -13.2679 H             1 RES     
    8407 C            5.5827    48.5323   -14.9414 C             1 RES     
    8408 H            5.0322    49.4421   -15.1806 H             1 RES     
    8409 H            4.9510    47.6644   -15.1303 H             1 RES     
    8410 C            6.8441    48.4498   -15.8209 C             1 RES     
    8411 H            7.3947    47.5400   -15.5817 H             1 RES     
    8412 H            7.4759    49.3177   -15.6320 H             1 RES     
    8413 C            6.4351    48.4265   -17.3054 C             1 RES     
    8414 H            5.8845    49.3363   -17.5446 H             1 RES     
    8415 H            5.8033    47.5586   -17.4944 H             1 RES     
    8416 C            7.6965    48.3440   -18.1850 C             1 RES     
    8417 H            8.2471    47.4342   -17.9457 H             1 RES     
    8418 H            8.3283    49.2119   -17.9960 H             1 RES     
    8419 C            7.2875    48.3207   -19.6695 C             1 RES     
    8420 H            6.7369    49.2305   -19.9087 H             1 RES     
    8421 H            6.6557    47.4528   -19.8584 H             1 RES     
    8422 O            0.0000    49.2950     3.0000 O             1 RES     
    8423 H            0.0371    48.3878     3.3118 H             1 RES     
    8424 C           19.4451    33.9234   -20.5091 C             1 RES     
    8425 H           19.2306    34.9713   -20.5393 H             1 RES     
    8426 H           19.7750    33.5986   -21.4739 H             1 RES     
    8427 H           20.2140    33.7371   -19.7877 H             1 RES     
    8428 C           10.5877    32.7481     1.6071 C             1 RES     
    8429 H            9.8310    33.4952     1.3678 H             1 RES     
    8430 H           10.1879    31.7518     1.4181 H             1 RES     
    8431 C           11.8309    32.9772     0.7275 C             1 RES     
    8432 H           12.5876    32.2301     0.9667 H             1 RES     
    8433 H           12.2307    33.9735     0.9165 H             1 RES     
    8434 C           11.4400    32.8544    -0.7570 C             1 RES     
    8435 H           10.6833    33.6015    -0.9962 H             1 RES     
    8436 H           11.0402    31.8581    -0.9459 H             1 RES     
    8437 C           12.6832    33.0835    -1.6365 C             1 RES     
    8438 H           13.4399    32.3364    -1.3973 H             1 RES     
    8439 H           13.0830    34.0798    -1.4476 H             1 RES     
    8440 C           12.2923    32.9607    -3.1210 C             1 RES     
    8441 H           11.5356    33.7078    -3.3603 H             1 RES     
    8442 H           11.8925    31.9644    -3.3100 H             1 RES     
    8443 C           13.5355    33.1898    -4.0006 C             1 RES     
    8444 H           14.2922    32.4427    -3.7614 H             1 RES     
    8445 H           13.9353    34.1861    -3.8117 H             1 RES     
    8446 C           13.1446    33.0670    -5.4851 C             1 RES     
    8447 H           12.3879    33.8141    -5.7243 H             1 RES     
    8448 H           12.7448    32.0707    -5.6740 H             1 RES     
    8449 C           14.3878    33.2961    -6.3647 C             1 RES     
    8450 H           15.1445    32.5490    -6.1254 H             1 RES     
    8451 H           14.7876    34.2924    -6.1757 H             1 RES     
    8452 C           13.9969    33.1732    -7.8492 C             1 RES     
    8453 H           13.2402    33.9204    -8.0884 H             1 RES     
    8454 H           13.5971    32.1770    -8.0381 H             1 RES     
    8455 C           15.2401    33.4024    -8.7287 C             1 RES     
    8456 H           15.9968    32.6553    -8.4895 H             1 RES     
    8457 H           15.6399    34.3987    -8.5398 H             1 RES     
    8458 C           14.8492    33.2795   -10.2132 C             1 RES     
    8459 H           14.0925    34.0267   -10.4525 H             1 RES     
    8460 H           14.4494    32.2833   -10.4022 H             1 RES     
    8461 C           16.0924    33.5087   -11.0928 C             1 RES     
    8462 H           16.8491    32.7615   -10.8536 H             1 RES     
    8463 H           16.4922    34.5049   -10.9039 H             1 RES     
    8464 C           15.7015    33.3858   -12.5773 C             1 RES     
    8465 H           14.9448    34.1330   -12.8165 H             1 RES     
    8466 H           15.3017    32.3896   -12.7662 H             1 RES     
    8467 C           16.9447    33.6150   -13.4569 C             1 RES     
    8468 H           17.7015    32.8678   -13.2176 H             1 RES     
    8469 H           17.3445    34.6112   -13.2679 H             1 RES     
    8470 C           16.5539    33.4921   -14.9414 C             1 RES     
    8471 H           15.7971    34.2393   -15.1806 H             1 RES     
    8472 H           16.1540    32.4958   -15.1303 H             1 RES     
    8473 C           17.7970    33.7213   -15.8209 C             1 RES     
    8474 H           18.5538    32.9741   -15.5817 H             1 RES     
    8475 H           18.1968    34.7175   -15.6320 H             1 RES     
    8476 C           17.4062    33.5984   -17.3054 C             1 RES     
    8477 H           16.6494    34.3455   -17.5446 H             1 RES     
    8478 H           17.0064    32.6021   -17.4944 H             1 RES     
    8479 C           18.6493    33.8276   -18.1850 C             1 RES     
    8480 H           19.4061    33.0804   -17.9457 H             1 RES     
    8481 H           19.0491    34.8238   -17.9960 H             1 RES     
    8482 C           18.2585    33.7047   -19.6695 C             1 RES     
    8483 H           17.5017    34.4518   -19.9087 H             1 RES     
    8484 H           17.8587    32.7084   -19.8584 H             1 RES     
    8485 O           10.9545    32.8634     3.0000 O             1 RES     
    8486 H           11.2128    31.9929     3.3118 H             1 RES     
    8487 C           14.0334    43.7300   -20.5091 C             1 RES     
    8488 H           13.9613    44.7972   -20.5393 H             1 RES     
    8489 H           14.3167    43.3639   -21.4739 H             1 RES     
    8490 H           14.7704    43.4423   -19.7877 H             1 RES     
    8491 C            5.0983    43.7527     1.6071 C             1 RES     
    8492 H            4.4486    44.5946     1.3678 H             1 RES     
    8493 H            4.5686    42.8191     1.4181 H             1 RES     
    8494 C            6.3610    43.8132     0.7275 C             1 RES     
    8495 H            7.0107    42.9713     0.9667 H             1 RES     
    8496 H            6.8908    44.7468     0.9165 H             1 RES     
    8497 C            5.9572    43.7438    -0.7570 C             1 RES     
    8498 H            5.3075    44.5857    -0.9962 H             1 RES     
    8499 H            5.4274    42.8101    -0.9459 H             1 RES     
    8500 C            7.2199    43.8042    -1.6365 C             1 RES     
    8501 H            7.8696    42.9624    -1.3973 H             1 RES     
    8502 H            7.7496    44.7379    -1.4476 H             1 RES     
    8503 C            6.8161    43.7349    -3.1210 C             1 RES     
    8504 H            6.1663    44.5767    -3.3603 H             1 RES     
    8505 H            6.2863    42.8012    -3.3100 H             1 RES     
    8506 C            8.0787    43.7953    -4.0006 C             1 RES     
    8507 H            8.7285    42.9534    -3.7614 H             1 RES     
    8508 H            8.6085    44.7290    -3.8117 H             1 RES     
    8509 C            7.6749    43.7259    -5.4851 C             1 RES     
    8510 H            7.0252    44.5678    -5.7243 H             1 RES     
    8511 H            7.1452    42.7923    -5.6740 H             1 RES     
    8512 C            8.9376    43.7864    -6.3647 C             1 RES     
    8513 H            9.5873    42.9445    -6.1254 H             1 RES     
    8514 H            9.4674    44.7200    -6.1757 H             1 RES     
    8515 C            8.5338    43.7170    -7.8492 C             1 RES     
    8516 H            7.8840    44.5589    -8.0884 H             1 RES     
    8517 H            8.0040    42.7833    -8.0381 H             1 RES     
    8518 C            9.7965    43.7774    -8.7287 C             1 RES     
    8519 H           10.4462    42.9356    -8.4895 H             1 RES     
    8520 H           10.3262    44.7111    -8.5398 H             1 RES     
    8521 C            9.3927    43.7081   -10.2132 C             1 RES     
    8522 H            8.7429    44.5499   -10.4525 H             1 RES     
    8523 H            8.8629    42.7744   -10.4022 H             1 RES     
    8524 C           10.6553    43.7685   -11.0928 C             1 RES     
    8525 H           11.3051    42.9266   -10.8536 H             1 RES     
    8526 H           11.1851    44.7022   -10.9039 H             1 RES     
    8527 C           10.2515    43.6992   -12.5773 C             1 RES     
    8528 H            9.6018    44.5410   -12.8165 H             1 RES     
    8529 H            9.7217    42.7655   -12.7662 H             1 RES     
    8530 C           11.5142    43.7596   -13.4569 C             1 RES     
    8531 H           12.1639    42.9177   -13.2176 H             1 RES     
    8532 H           12.0439    44.6932   -13.2679 H             1 RES     
    8533 C           11.1104    43.6902   -14.9414 C             1 RES     
    8534 H           10.4606    44.5321   -15.1806 H             1 RES     
    8535 H           10.5806    42.7565   -15.1303 H             1 RES     
    8536 C           12.3730    43.7506   -15.8209 C             1 RES     
    8537 H           13.0228    42.9088   -15.5817 H             1 RES     
    8538 H           12.9028    44.6843   -15.6320 H             1 RES     
    8539 C           11.9692    43.6813   -17.3054 C             1 RES     
    8540 H           11.3195    44.5231   -17.5446 H             1 RES     
    8541 H           11.4395    42.7476   -17.4944 H             1 RES     
    8542 C           13.2319    43.7417   -18.1850 C             1 RES     
    8543 H           13.8817    42.8999   -17.9457 H             1 RES     
    8544 H           13.7617    44.6754   -17.9960 H             1 RES     
    8545 C           12.8281    43.6724   -19.6695 C             1 RES     
    8546 H           12.1784    44.5142   -19.9087 H             1 RES     
    8547 H           12.2983    42.7387   -19.8584 H             1 RES     
    8548 O            5.4772    43.8178     3.0000 O             1 RES     
    8549 H            5.6165    42.9206     3.3118 H             1 RES     
    8550 C           19.4464     4.4276   -20.5091 C             1 RES     
    8551 H           19.4948     5.4961   -20.5393 H             1 RES     
    8552 H           19.6868     4.0319   -21.4739 H             1 RES     
    8553 H           20.1464     4.0588   -19.7877 H             1 RES     
    8554 C           10.5706     5.4552     1.6071 C             1 RES     
    8555 H           10.0197     6.3648     1.3678 H             1 RES     
    8556 H            9.9392     4.5870     1.4181 H             1 RES     
    8557 C           11.8321     5.3732     0.7275 C             1 RES     
    8558 H           12.3830     4.4636     0.9667 H             1 RES     
    8559 H           12.4635     6.2414     0.9165 H             1 RES     
    8560 C           11.4231     5.3497    -0.7570 C             1 RES     
    8561 H           10.8721     6.2593    -0.9962 H             1 RES     
    8562 H           10.7916     4.4815    -0.9459 H             1 RES     
    8563 C           12.6845     5.2677    -1.6365 C             1 RES     
    8564 H           13.2354     4.3581    -1.3973 H             1 RES     
    8565 H           13.3159     6.1359    -1.4476 H             1 RES     
    8566 C           12.2755     5.2442    -3.1210 C             1 RES     
    8567 H           11.7245     6.1538    -3.3603 H             1 RES     
    8568 H           11.6440     4.3761    -3.3100 H             1 RES     
    8569 C           13.5369     5.1622    -4.0006 C             1 RES     
    8570 H           14.0878     4.2527    -3.7614 H             1 RES     
    8571 H           14.1683     6.0304    -3.8117 H             1 RES     
    8572 C           13.1279     5.1388    -5.4851 C             1 RES     
    8573 H           12.5769     6.0483    -5.7243 H             1 RES     
    8574 H           12.4964     4.2706    -5.6740 H             1 RES     
    8575 C           14.3893     5.0568    -6.3647 C             1 RES     
    8576 H           14.9402     4.1472    -6.1254 H             1 RES     
    8577 H           15.0207     5.9249    -6.1757 H             1 RES     
    8578 C           13.9803     5.0333    -7.8492 C             1 RES     
    8579 H           13.4293     5.9429    -8.0884 H             1 RES     
    8580 H           13.3489     4.1651    -8.0381 H             1 RES     
    8581 C           15.2417     4.9513    -8.7287 C             1 RES     
    8582 H           15.7927     4.0417    -8.4895 H             1 RES     
    8583 H           15.8731     5.8194    -8.5398 H             1 RES     
    8584 C           14.8327     4.9278   -10.2132 C             1 RES     
    8585 H           14.2818     5.8374   -10.4525 H             1 RES     
    8586 H           14.2013     4.0596   -10.4022 H             1 RES     
    8587 C           16.0941     4.8458   -11.0928 C             1 RES     
    8588 H           16.6451     3.9362   -10.8536 H             1 RES     
    8589 H           16.7256     5.7140   -10.9039 H             1 RES     
    8590 C           15.6851     4.8223   -12.5773 C             1 RES     
    8591 H           15.1342     5.7319   -12.8165 H             1 RES     
    8592 H           15.0537     3.9541   -12.7662 H             1 RES     
    8593 C           16.9465     4.7403   -13.4569 C             1 RES     
    8594 H           17.4975     3.8307   -13.2176 H             1 RES     
    8595 H           17.5780     5.6085   -13.2679 H             1 RES     
    8596 C           16.5375     4.7168   -14.9414 C             1 RES     
    8597 H           15.9866     5.6264   -15.1806 H             1 RES     
    8598 H           15.9061     3.8487   -15.1303 H             1 RES     
    8599 C           17.7989     4.6348   -15.8209 C             1 RES     
    8600 H           18.3499     3.7253   -15.5817 H             1 RES     
    8601 H           18.4304     5.5030   -15.6320 H             1 RES     
    8602 C           17.3899     4.6114   -17.3054 C             1 RES     
    8603 H           16.8390     5.5209   -17.5446 H             1 RES     
    8604 H           16.7585     3.7432   -17.4944 H             1 RES     
    8605 C           18.6514     4.5294   -18.1850 C             1 RES     
    8606 H           19.2023     3.6198   -17.9457 H             1 RES     
    8607 H           19.2828     5.3975   -17.9960 H             1 RES     
    8608 C           18.2423     4.5059   -19.6695 C             1 RES     
    8609 H           17.6914     5.4155   -19.9087 H             1 RES     
    8610 H           17.6109     3.6377   -19.8584 H             1 RES     
    8611 O           10.9545     5.4772     3.0000 O             1 RES     
    8612 H           10.9920     4.5700     3.3118 H             1 RES     
    8613 C           41.1615    19.8216   -20.5091 C             1 RES     
    8614 H           41.3410    20.8760   -20.5393 H             1 RES     
    8615 H           41.3513    19.3993   -21.4739 H             1 RES     
    8616 H           41.8107    19.3694   -19.7877 H             1 RES     
    8617 C           32.4798    21.9343     1.6071 C             1 RES     
    8618 H           32.0450    22.9048     1.3678 H             1 RES     
    8619 H           31.7462    21.1505     1.4181 H             1 RES     
    8620 C           33.7215    21.6976     0.7275 C             1 RES     
    8621 H           34.1562    20.7271     0.9667 H             1 RES     
    8622 H           34.4550    22.4814     0.9165 H             1 RES     
    8623 C           33.3127    21.7247    -0.7570 C             1 RES     
    8624 H           32.8780    22.6952    -0.9962 H             1 RES     
    8625 H           32.5792    20.9409    -0.9459 H             1 RES     
    8626 C           34.5544    21.4879    -1.6365 C             1 RES     
    8627 H           34.9892    20.5174    -1.3973 H             1 RES     
    8628 H           35.2880    22.2718    -1.4476 H             1 RES     
    8629 C           34.1456    21.5150    -3.1210 C             1 RES     
    8630 H           33.7109    22.4855    -3.3603 H             1 RES     
    8631 H           33.4121    20.7312    -3.3100 H             1 RES     
    8632 C           35.3874    21.2783    -4.0006 C             1 RES     
    8633 H           35.8221    20.3078    -3.7614 H             1 RES     
    8634 H           36.1209    22.0621    -3.8117 H             1 RES     
    8635 C           34.9786    21.3054    -5.4851 C             1 RES     
    8636 H           34.5438    22.2759    -5.7243 H             1 RES     
    8637 H           34.2450    20.5216    -5.6740 H             1 RES     
    8638 C           36.2203    21.0687    -6.3647 C             1 RES     
    8639 H           36.6550    20.0982    -6.1254 H             1 RES     
    8640 H           36.9538    21.8525    -6.1757 H             1 RES     
    8641 C           35.8115    21.0957    -7.8492 C             1 RES     
    8642 H           35.3768    22.0662    -8.0884 H             1 RES     
    8643 H           35.0780    20.3119    -8.0381 H             1 RES     
    8644 C           37.0532    20.8590    -8.7287 C             1 RES     
    8645 H           37.4880    19.8885    -8.4895 H             1 RES     
    8646 H           37.7868    21.6428    -8.5398 H             1 RES     
    8647 C           36.6444    20.8861   -10.2132 C             1 RES     
    8648 H           36.2097    21.8566   -10.4525 H             1 RES     
    8649 H           35.9109    20.1023   -10.4022 H             1 RES     
    8650 C           37.8862    20.6494   -11.0928 C             1 RES     
    8651 H           38.3209    19.6789   -10.8536 H             1 RES     
    8652 H           38.6197    21.4332   -10.9039 H             1 RES     
    8653 C           37.4773    20.6764   -12.5773 C             1 RES     
    8654 H           37.0426    21.6469   -12.8165 H             1 RES     
    8655 H           36.7438    19.8926   -12.7662 H             1 RES     
    8656 C           38.7191    20.4397   -13.4569 C             1 RES     
    8657 H           39.1538    19.4692   -13.2176 H             1 RES     
    8658 H           39.4526    21.2235   -13.2679 H             1 RES     
    8659 C           38.3103    20.4668   -14.9414 C             1 RES     
    8660 H           37.8755    21.4373   -15.1806 H             1 RES     
    8661 H           37.5768    19.6830   -15.1303 H             1 RES     
    8662 C           39.5520    20.2301   -15.8209 C             1 RES     
    8663 H           39.9868    19.2596   -15.5817 H             1 RES     
    8664 H           40.2856    21.0139   -15.6320 H             1 RES     
    8665 C           39.1432    20.2572   -17.3054 C             1 RES     
    8666 H           38.7085    21.2277   -17.5446 H             1 RES     
    8667 H           38.4097    19.4734   -17.4944 H             1 RES     
    8668 C           40.3850    20.0205   -18.1850 C             1 RES     
    8669 H           40.8197    19.0500   -17.9457 H             1 RES     
    8670 H           41.1185    20.8043   -17.9960 H             1 RES     
    8671 C           39.9761    20.0475   -19.6695 C             1 RES     
    8672 H           39.5414    21.0180   -19.9087 H             1 RES     
    8673 H           39.2426    19.2637   -19.8584 H             1 RES     
    8674 O           32.8634    21.9089     3.0000 O             1 RES     
    8675 H           32.7889    21.0040     3.3118 H             1 RES     
    8676 C           46.8690    21.2155   -20.5091 C             1 RES     
    8677 H           46.8727    22.2851   -20.5393 H             1 RES     
    8678 H           47.1257    20.8303   -21.4739 H             1 RES     
    8679 H           47.5838    20.8764   -19.7877 H             1 RES     
    8680 C           37.9580    21.8708     1.6071 C             1 RES     
    8681 H           37.3695    22.7566     1.3678 H             1 RES     
    8682 H           37.3635    20.9770     1.4181 H             1 RES     
    8683 C           39.2218    21.8417     0.7275 C             1 RES     
    8684 H           39.8103    20.9560     0.9667 H             1 RES     
    8685 H           39.8163    22.7355     0.9165 H             1 RES     
    8686 C           38.8141    21.8011    -0.7570 C             1 RES     
    8687 H           38.2256    22.6868    -0.9962 H             1 RES     
    8688 H           38.2196    20.9073    -0.9459 H             1 RES     
    8689 C           40.0779    21.7720    -1.6365 C             1 RES     
    8690 H           40.6664    20.8862    -1.3973 H             1 RES     
    8691 H           40.6724    22.6658    -1.4476 H             1 RES     
    8692 C           39.6702    21.7314    -3.1210 C             1 RES     
    8693 H           39.0817    22.6171    -3.3603 H             1 RES     
    8694 H           39.0756    20.8376    -3.3100 H             1 RES     
    8695 C           40.9340    21.7023    -4.0006 C             1 RES     
    8696 H           41.5225    20.8165    -3.7614 H             1 RES     
    8697 H           41.5285    22.5961    -3.8117 H             1 RES     
    8698 C           40.5263    21.6617    -5.4851 C             1 RES     
    8699 H           39.9377    22.5474    -5.7243 H             1 RES     
    8700 H           39.9317    20.7678    -5.6740 H             1 RES     
    8701 C           41.7900    21.6325    -6.3647 C             1 RES     
    8702 H           42.3785    20.7468    -6.1254 H             1 RES     
    8703 H           42.3846    22.5264    -6.1757 H             1 RES     
    8704 C           41.3823    21.5920    -7.8492 C             1 RES     
    8705 H           40.7938    22.4777    -8.0884 H             1 RES     
    8706 H           40.7878    20.6981    -8.0381 H             1 RES     
    8707 C           42.6461    21.5628    -8.7287 C             1 RES     
    8708 H           43.2346    20.6771    -8.4895 H             1 RES     
    8709 H           43.2406    22.4566    -8.5398 H             1 RES     
    8710 C           42.2384    21.5222   -10.2132 C             1 RES     
    8711 H           41.6499    22.4080   -10.4525 H             1 RES     
    8712 H           41.6439    20.6284   -10.4022 H             1 RES     
    8713 C           43.5022    21.4931   -11.0928 C             1 RES     
    8714 H           44.0907    20.6074   -10.8536 H             1 RES     
    8715 H           44.0967    22.3869   -10.9039 H             1 RES     
    8716 C           43.0945    21.4525   -12.5773 C             1 RES     
    8717 H           42.5060    22.3383   -12.8165 H             1 RES     
    8718 H           42.4999    20.5587   -12.7662 H             1 RES     
    8719 C           44.3583    21.4234   -13.4569 C             1 RES     
    8720 H           44.9468    20.5376   -13.2176 H             1 RES     
    8721 H           44.9528    22.3172   -13.2679 H             1 RES     
    8722 C           43.9506    21.3828   -14.9414 C             1 RES     
    8723 H           43.3620    22.2685   -15.1806 H             1 RES     
    8724 H           43.3560    20.4890   -15.1303 H             1 RES     
    8725 C           45.2143    21.3537   -15.8209 C             1 RES     
    8726 H           45.8028    20.4679   -15.5817 H             1 RES     
    8727 H           45.8089    22.2475   -15.6320 H             1 RES     
    8728 C           44.8066    21.3131   -17.3054 C             1 RES     
    8729 H           44.2181    22.1988   -17.5446 H             1 RES     
    8730 H           44.2121    20.4193   -17.4944 H             1 RES     
    8731 C           46.0704    21.2839   -18.1850 C             1 RES     
    8732 H           46.6589    20.3982   -17.9457 H             1 RES     
    8733 H           46.6649    22.1778   -17.9960 H             1 RES     
    8734 C           45.6627    21.2434   -19.6695 C             1 RES     
    8735 H           45.0742    22.1291   -19.9087 H             1 RES     
    8736 H           45.0682    20.3495   -19.8584 H             1 RES     
    8737 O           38.3406    21.9089     3.0000 O             1 RES     
    8738 H           38.4160    21.0041     3.3118 H             1 RES     
    8739 C           35.7357    12.8254   -20.5091 C             1 RES     
    8740 H           35.4215    13.8477   -20.5393 H             1 RES     
    8741 H           36.0952    12.5337   -21.4739 H             1 RES     
    8742 H           36.5189    12.7138   -19.7877 H             1 RES     
    8743 C           27.0322    10.8045     1.6071 C             1 RES     
    8744 H           26.2071    11.4755     1.3678 H             1 RES     
    8745 H           26.7299     9.7744     1.4181 H             1 RES     
    8746 C           28.2476    11.1520     0.7275 C             1 RES     
    8747 H           29.0726    10.4810     0.9667 H             1 RES     
    8748 H           28.5498    12.1821     0.9165 H             1 RES     
    8749 C           27.8703    10.9922    -0.7570 C             1 RES     
    8750 H           27.0453    11.6631    -0.9962 H             1 RES     
    8751 H           27.5681     9.9621    -0.9459 H             1 RES     
    8752 C           29.0857    11.3397    -1.6365 C             1 RES     
    8753 H           29.9107    10.6687    -1.3973 H             1 RES     
    8754 H           29.3880    12.3698    -1.4476 H             1 RES     
    8755 C           28.7085    11.1798    -3.1210 C             1 RES     
    8756 H           27.8834    11.8508    -3.3603 H             1 RES     
    8757 H           28.4062    10.1498    -3.3100 H             1 RES     
    8758 C           29.9239    11.5274    -4.0006 C             1 RES     
    8759 H           30.7489    10.8564    -3.7614 H             1 RES     
    8760 H           30.2261    12.5574    -3.8117 H             1 RES     
    8761 C           29.5466    11.3675    -5.4851 C             1 RES     
    8762 H           28.7216    12.0385    -5.7243 H             1 RES     
    8763 H           29.2444    10.3375    -5.6740 H             1 RES     
    8764 C           30.7620    11.7150    -6.3647 C             1 RES     
    8765 H           31.5870    11.0441    -6.1254 H             1 RES     
    8766 H           31.0643    12.7451    -6.1757 H             1 RES     
    8767 C           30.3848    11.5552    -7.8492 C             1 RES     
    8768 H           29.5597    12.2262    -8.0884 H             1 RES     
    8769 H           30.0825    10.5251    -8.0381 H             1 RES     
    8770 C           31.6002    11.9027    -8.7287 C             1 RES     
    8771 H           32.4252    11.2318    -8.4895 H             1 RES     
    8772 H           31.9024    12.9328    -8.5398 H             1 RES     
    8773 C           31.2229    11.7429   -10.2132 C             1 RES     
    8774 H           30.3979    12.4139   -10.4525 H             1 RES     
    8775 H           30.9207    10.7128   -10.4022 H             1 RES     
    8776 C           32.4383    12.0904   -11.0928 C             1 RES     
    8777 H           33.2633    11.4194   -10.8536 H             1 RES     
    8778 H           32.7406    13.1205   -10.9039 H             1 RES     
    8779 C           32.0611    11.9306   -12.5773 C             1 RES     
    8780 H           31.2360    12.6016   -12.8165 H             1 RES     
    8781 H           31.7588    10.9005   -12.7662 H             1 RES     
    8782 C           33.2765    12.2781   -13.4569 C             1 RES     
    8783 H           34.1015    11.6071   -13.2176 H             1 RES     
    8784 H           33.5787    13.3082   -13.2679 H             1 RES     
    8785 C           32.8992    12.1183   -14.9414 C             1 RES     
    8786 H           32.0742    12.7892   -15.1806 H             1 RES     
    8787 H           32.5970    11.0882   -15.1303 H             1 RES     
    8788 C           34.1146    12.4658   -15.8209 C             1 RES     
    8789 H           34.9396    11.7948   -15.5817 H             1 RES     
    8790 H           34.4169    13.4959   -15.6320 H             1 RES     
    8791 C           33.7374    12.3059   -17.3054 C             1 RES     
    8792 H           32.9124    12.9769   -17.5446 H             1 RES     
    8793 H           33.4351    11.2759   -17.4944 H             1 RES     
    8794 C           34.9528    12.6535   -18.1850 C             1 RES     
    8795 H           35.7778    11.9825   -17.9457 H             1 RES     
    8796 H           35.2550    13.6835   -17.9960 H             1 RES     
    8797 C           34.5755    12.4936   -19.6695 C             1 RES     
    8798 H           33.7505    13.1646   -19.9087 H             1 RES     
    8799 H           34.2733    11.4636   -19.8584 H             1 RES     
    8800 O           27.3861    10.9545     3.0000 O             1 RES     
    8801 H           27.7269    10.1129     3.3118 H             1 RES     
    8802 C           41.3836    39.1286   -20.5091 C             1 RES     
    8803 H           41.2027    40.1828   -20.5393 H             1 RES     
    8804 H           41.7029    38.7934   -21.4739 H             1 RES     
    8805 H           42.1461    38.9178   -19.7877 H             1 RES     
    8806 C           32.4931    38.2371     1.6071 C             1 RES     
    8807 H           31.7606    39.0080     1.3678 H             1 RES     
    8808 H           32.0616    37.2541     1.4181 H             1 RES     
    8809 C           33.7430    38.4264     0.7275 C             1 RES     
    8810 H           34.4754    37.6554     0.9667 H             1 RES     
    8811 H           34.1744    39.4093     0.9165 H             1 RES     
    8812 C           33.3484    38.3161    -0.7570 C             1 RES     
    8813 H           32.6159    39.0870    -0.9962 H             1 RES     
    8814 H           32.9169    37.3331    -0.9459 H             1 RES     
    8815 C           34.5982    38.5054    -1.6365 C             1 RES     
    8816 H           35.3307    37.7344    -1.3973 H             1 RES     
    8817 H           35.0297    39.4883    -1.4476 H             1 RES     
    8818 C           34.2036    38.3951    -3.1210 C             1 RES     
    8819 H           33.4712    39.1660    -3.3603 H             1 RES     
    8820 H           33.7722    37.4121    -3.3100 H             1 RES     
    8821 C           35.4535    38.5843    -4.0006 C             1 RES     
    8822 H           36.1860    37.8134    -3.7614 H             1 RES     
    8823 H           35.8850    39.5673    -3.8117 H             1 RES     
    8824 C           35.0589    38.4740    -5.4851 C             1 RES     
    8825 H           34.3265    39.2450    -5.7243 H             1 RES     
    8826 H           34.6275    37.4911    -5.6740 H             1 RES     
    8827 C           36.3088    38.6633    -6.3647 C             1 RES     
    8828 H           37.0412    37.8924    -6.1254 H             1 RES     
    8829 H           36.7402    39.6463    -6.1757 H             1 RES     
    8830 C           35.9142    38.5530    -7.8492 C             1 RES     
    8831 H           35.1817    39.3240    -8.0884 H             1 RES     
    8832 H           35.4827    37.5701    -8.0381 H             1 RES     
    8833 C           37.1640    38.7423    -8.7287 C             1 RES     
    8834 H           37.8965    37.9714    -8.4895 H             1 RES     
    8835 H           37.5955    39.7253    -8.5398 H             1 RES     
    8836 C           36.7695    38.6320   -10.2132 C             1 RES     
    8837 H           36.0370    39.4030   -10.4525 H             1 RES     
    8838 H           36.3380    37.6490   -10.4022 H             1 RES     
    8839 C           38.0193    38.8213   -11.0928 C             1 RES     
    8840 H           38.7518    38.0503   -10.8536 H             1 RES     
    8841 H           38.4508    39.8043   -10.9039 H             1 RES     
    8842 C           37.6247    38.7110   -12.5773 C             1 RES     
    8843 H           36.8923    39.4820   -12.8165 H             1 RES     
    8844 H           37.1933    37.7280   -12.7662 H             1 RES     
    8845 C           38.8746    38.9003   -13.4569 C             1 RES     
    8846 H           39.6071    38.1293   -13.2176 H             1 RES     
    8847 H           39.3060    39.8833   -13.2679 H             1 RES     
    8848 C           38.4800    38.7900   -14.9414 C             1 RES     
    8849 H           37.7475    39.5609   -15.1806 H             1 RES     
    8850 H           38.0485    37.8070   -15.1303 H             1 RES     
    8851 C           39.7299    38.9793   -15.8209 C             1 RES     
    8852 H           40.4623    38.2083   -15.5817 H             1 RES     
    8853 H           40.1613    39.9622   -15.6320 H             1 RES     
    8854 C           39.3353    38.8690   -17.3054 C             1 RES     
    8855 H           38.6028    39.6399   -17.5446 H             1 RES     
    8856 H           38.9038    37.8860   -17.4944 H             1 RES     
    8857 C           40.5851    39.0582   -18.1850 C             1 RES     
    8858 H           41.3176    38.2873   -17.9457 H             1 RES     
    8859 H           41.0166    40.0412   -17.9960 H             1 RES     
    8860 C           40.1905    38.9480   -19.6695 C             1 RES     
    8861 H           39.4581    39.7189   -19.9087 H             1 RES     
    8862 H           39.7591    37.9650   -19.8584 H             1 RES     
    8863 O           32.8634    38.3406     3.0000 O             1 RES     
    8864 H           33.0937    37.4623     3.3118 H             1 RES     
    8865 C           14.0153     6.0395   -20.5091 C             1 RES     
    8866 H           13.8624     7.0981   -20.5393 H             1 RES     
    8867 H           14.3257     5.6960   -21.4739 H             1 RES     
    8868 H           14.7720     5.8086   -19.7877 H             1 RES     
    8869 C            5.1044     5.3836     1.6071 C             1 RES     
    8870 H            4.3926     6.1736     1.3678 H             1 RES     
    8871 H            4.6471     4.4124     1.4181 H             1 RES     
    8872 C            6.3588     5.5397     0.7275 C             1 RES     
    8873 H            7.0706     4.7496     0.9667 H             1 RES     
    8874 H            6.8161     6.5109     0.9165 H             1 RES     
    8875 C            5.9614     5.4399    -0.7570 C             1 RES     
    8876 H            5.2496     6.2300    -0.9962 H             1 RES     
    8877 H            5.5041     4.4687    -0.9459 H             1 RES     
    8878 C            7.2159     5.5960    -1.6365 C             1 RES     
    8879 H            7.9277     4.8060    -1.3973 H             1 RES     
    8880 H            7.6732     6.5673    -1.4476 H             1 RES     
    8881 C            6.8185     5.4962    -3.1210 C             1 RES     
    8882 H            6.1067     6.2863    -3.3603 H             1 RES     
    8883 H            6.3612     4.5250    -3.3100 H             1 RES     
    8884 C            8.0729     5.6524    -4.0006 C             1 RES     
    8885 H            8.7847     4.8623    -3.7614 H             1 RES     
    8886 H            8.5302     6.6236    -3.8117 H             1 RES     
    8887 C            7.6756     5.5526    -5.4851 C             1 RES     
    8888 H            6.9637     6.3426    -5.7243 H             1 RES     
    8889 H            7.2182     4.5813    -5.6740 H             1 RES     
    8890 C            8.9300     5.7087    -6.3647 C             1 RES     
    8891 H            9.6418     4.9186    -6.1254 H             1 RES     
    8892 H            9.3873     6.6799    -6.1757 H             1 RES     
    8893 C            8.5326     5.6089    -7.8492 C             1 RES     
    8894 H            7.8208     6.3989    -8.0884 H             1 RES     
    8895 H            8.0753     4.6377    -8.0381 H             1 RES     
    8896 C            9.7870     5.7650    -8.7287 C             1 RES     
    8897 H           10.4989     4.9750    -8.4895 H             1 RES     
    8898 H           10.2444     6.7362    -8.5398 H             1 RES     
    8899 C            9.3897     5.6652   -10.2132 C             1 RES     
    8900 H            8.6779     6.4553   -10.4525 H             1 RES     
    8901 H            8.9324     4.6940   -10.4022 H             1 RES     
    8902 C           10.6441     5.8213   -11.0928 C             1 RES     
    8903 H           11.3559     5.0313   -10.8536 H             1 RES     
    8904 H           11.1014     6.7926   -10.9039 H             1 RES     
    8905 C           10.2467     5.7215   -12.5773 C             1 RES     
    8906 H            9.5349     6.5116   -12.8165 H             1 RES     
    8907 H            9.7894     4.7503   -12.7662 H             1 RES     
    8908 C           11.5012     5.8777   -13.4569 C             1 RES     
    8909 H           12.2130     5.0876   -13.2176 H             1 RES     
    8910 H           11.9585     6.8489   -13.2679 H             1 RES     
    8911 C           11.1038     5.7779   -14.9414 C             1 RES     
    8912 H           10.3920     6.5679   -15.1806 H             1 RES     
    8913 H           10.6465     4.8066   -15.1303 H             1 RES     
    8914 C           12.3582     5.9340   -15.8209 C             1 RES     
    8915 H           13.0700     5.1439   -15.5817 H             1 RES     
    8916 H           12.8155     6.9052   -15.6320 H             1 RES     
    8917 C           11.9609     5.8342   -17.3054 C             1 RES     
    8918 H           11.2490     6.6242   -17.5446 H             1 RES     
    8919 H           11.5035     4.8630   -17.4944 H             1 RES     
    8920 C           13.2153     5.9903   -18.1850 C             1 RES     
    8921 H           13.9271     5.2003   -17.9457 H             1 RES     
    8922 H           13.6726     6.9615   -17.9960 H             1 RES     
    8923 C           12.8179     5.8905   -19.6695 C             1 RES     
    8924 H           12.1061     6.6806   -19.9087 H             1 RES     
    8925 H           12.3606     4.9193   -19.8584 H             1 RES     
    8926 O            5.4772     5.4772     3.0000 O             1 RES     
    8927 H            5.6843     4.5932     3.3118 H             1 RES     
    8928 C           30.2456    29.3133   -20.5091 C             1 RES     
    8929 H           29.9245    30.3336   -20.5393 H             1 RES     
    8930 H           30.6072    29.0241   -21.4739 H             1 RES     
    8931 H           31.0296    29.2070   -19.7877 H             1 RES     
    8932 C           21.5559    27.2338     1.6071 C             1 RES     
    8933 H           20.7264    27.8992     1.3678 H             1 RES     
    8934 H           21.2607    26.2017     1.4181 H             1 RES     
    8935 C           22.7690    27.5895     0.7275 C             1 RES     
    8936 H           23.5985    26.9241     0.9667 H             1 RES     
    8937 H           23.0643    28.6216     0.9165 H             1 RES     
    8938 C           22.3928    27.4271    -0.7570 C             1 RES     
    8939 H           21.5633    28.0925    -0.9962 H             1 RES     
    8940 H           22.0975    26.3950    -0.9459 H             1 RES     
    8941 C           23.6058    27.7828    -1.6365 C             1 RES     
    8942 H           24.4354    27.1174    -1.3973 H             1 RES     
    8943 H           23.9011    28.8149    -1.4476 H             1 RES     
    8944 C           23.2297    27.6204    -3.1210 C             1 RES     
    8945 H           22.4002    28.2858    -3.3603 H             1 RES     
    8946 H           22.9344    26.5884    -3.3100 H             1 RES     
    8947 C           24.4427    27.9762    -4.0006 C             1 RES     
    8948 H           25.2722    27.3108    -3.7614 H             1 RES     
    8949 H           24.7380    29.0082    -3.8117 H             1 RES     
    8950 C           24.0665    27.8138    -5.4851 C             1 RES     
    8951 H           23.2370    28.4792    -5.7243 H             1 RES     
    8952 H           23.7713    26.7817    -5.6740 H             1 RES     
    8953 C           25.2796    28.1695    -6.3647 C             1 RES     
    8954 H           26.1091    27.5041    -6.1254 H             1 RES     
    8955 H           25.5749    29.2016    -6.1757 H             1 RES     
    8956 C           24.9034    28.0071    -7.8492 C             1 RES     
    8957 H           24.0739    28.6725    -8.0884 H             1 RES     
    8958 H           24.6081    26.9750    -8.0381 H             1 RES     
    8959 C           26.1164    28.3628    -8.7287 C             1 RES     
    8960 H           26.9460    27.6974    -8.4895 H             1 RES     
    8961 H           26.4117    29.3949    -8.5398 H             1 RES     
    8962 C           25.7403    28.2004   -10.2132 C             1 RES     
    8963 H           24.9108    28.8658   -10.4525 H             1 RES     
    8964 H           25.4450    27.1684   -10.4022 H             1 RES     
    8965 C           26.9533    28.5562   -11.0928 C             1 RES     
    8966 H           27.7828    27.8908   -10.8536 H             1 RES     
    8967 H           27.2486    29.5882   -10.9039 H             1 RES     
    8968 C           26.5771    28.3938   -12.5773 C             1 RES     
    8969 H           25.7476    29.0592   -12.8165 H             1 RES     
    8970 H           26.2819    27.3617   -12.7662 H             1 RES     
    8971 C           27.7902    28.7495   -13.4569 C             1 RES     
    8972 H           28.6197    28.0841   -13.2176 H             1 RES     
    8973 H           28.0855    29.7816   -13.2679 H             1 RES     
    8974 C           27.4140    28.5871   -14.9414 C             1 RES     
    8975 H           26.5845    29.2525   -15.1806 H             1 RES     
    8976 H           27.1187    27.5550   -15.1303 H             1 RES     
    8977 C           28.6270    28.9428   -15.8209 C             1 RES     
    8978 H           29.4566    28.2774   -15.5817 H             1 RES     
    8979 H           28.9223    29.9749   -15.6320 H             1 RES     
    8980 C           28.2509    28.7805   -17.3054 C             1 RES     
    8981 H           27.4214    29.4458   -17.5446 H             1 RES     
    8982 H           27.9556    27.7484   -17.4944 H             1 RES     
    8983 C           29.4639    29.1362   -18.1850 C             1 RES     
    8984 H           30.2934    28.4708   -17.9457 H             1 RES     
    8985 H           29.7592    30.1683   -17.9960 H             1 RES     
    8986 C           29.0878    28.9738   -19.6695 C             1 RES     
    8987 H           28.2582    29.6392   -19.9087 H             1 RES     
    8988 H           28.7925    27.9417   -19.8584 H             1 RES     
    8989 O           21.9089    27.3861     3.0000 O             1 RES     
    8990 H           22.2554    26.5469     3.3118 H             1 RES     
    8991 C           19.2539    14.3498   -20.5091 C             1 RES     
    8992 H           19.4328    15.4043   -20.5393 H             1 RES     
    8993 H           19.4440    13.9276   -21.4739 H             1 RES     
    8994 H           19.9034    13.8980   -19.7877 H             1 RES     
    8995 C           10.5708    16.4568     1.6071 C             1 RES     
    8996 H           10.1355    17.4270     1.3678 H             1 RES     
    8997 H            9.8378    15.6725     1.4181 H             1 RES     
    8998 C           11.8127    16.2209     0.7275 C             1 RES     
    8999 H           12.2481    15.2507     0.9667 H             1 RES     
    9000 H           12.5457    17.0052     0.9165 H             1 RES     
    9001 C           11.4039    16.2477    -0.7570 C             1 RES     
    9002 H           10.9685    17.2179    -0.9962 H             1 RES     
    9003 H           10.6709    15.4634    -0.9459 H             1 RES     
    9004 C           12.6458    16.0118    -1.6365 C             1 RES     
    9005 H           13.0812    15.0416    -1.3973 H             1 RES     
    9006 H           13.3788    16.7961    -1.4476 H             1 RES     
    9007 C           12.2370    16.0386    -3.1210 C             1 RES     
    9008 H           11.8016    17.0088    -3.3603 H             1 RES     
    9009 H           11.5040    15.2543    -3.3100 H             1 RES     
    9010 C           13.4789    15.8027    -4.0006 C             1 RES     
    9011 H           13.9143    14.8325    -3.7614 H             1 RES     
    9012 H           14.2119    16.5870    -3.8117 H             1 RES     
    9013 C           13.0700    15.8295    -5.4851 C             1 RES     
    9014 H           12.6347    16.7998    -5.7243 H             1 RES     
    9015 H           12.3370    15.0452    -5.6740 H             1 RES     
    9016 C           14.3119    15.5936    -6.3647 C             1 RES     
    9017 H           14.7473    14.6234    -6.1254 H             1 RES     
    9018 H           15.0450    16.3779    -6.1757 H             1 RES     
    9019 C           13.9031    15.6204    -7.8492 C             1 RES     
    9020 H           13.4677    16.5907    -8.0884 H             1 RES     
    9021 H           13.1701    14.8362    -8.0381 H             1 RES     
    9022 C           15.1450    15.3845    -8.7287 C             1 RES     
    9023 H           15.5804    14.4143    -8.4895 H             1 RES     
    9024 H           15.8780    16.1688    -8.5398 H             1 RES     
    9025 C           14.7362    15.4113   -10.2132 C             1 RES     
    9026 H           14.3008    16.3816   -10.4525 H             1 RES     
    9027 H           14.0032    14.6271   -10.4022 H             1 RES     
    9028 C           15.9781    15.1754   -11.0928 C             1 RES     
    9029 H           16.4135    14.2052   -10.8536 H             1 RES     
    9030 H           16.7111    15.9597   -10.9039 H             1 RES     
    9031 C           15.5693    15.2022   -12.5773 C             1 RES     
    9032 H           15.1339    16.1725   -12.8165 H             1 RES     
    9033 H           14.8362    14.4180   -12.7662 H             1 RES     
    9034 C           16.8112    14.9664   -13.4569 C             1 RES     
    9035 H           17.2465    13.9961   -13.2176 H             1 RES     
    9036 H           17.5442    15.7506   -13.2679 H             1 RES     
    9037 C           16.4023    14.9932   -14.9414 C             1 RES     
    9038 H           15.9670    15.9634   -15.1806 H             1 RES     
    9039 H           15.6693    14.2089   -15.1303 H             1 RES     
    9040 C           17.6442    14.7573   -15.8209 C             1 RES     
    9041 H           18.0796    13.7870   -15.5817 H             1 RES     
    9042 H           18.3772    15.5415   -15.6320 H             1 RES     
    9043 C           17.2354    14.7841   -17.3054 C             1 RES     
    9044 H           16.8000    15.7543   -17.5446 H             1 RES     
    9045 H           16.5024    13.9998   -17.4944 H             1 RES     
    9046 C           18.4773    14.5482   -18.1850 C             1 RES     
    9047 H           18.9127    13.5779   -17.9457 H             1 RES     
    9048 H           19.2103    15.3324   -17.9960 H             1 RES     
    9049 C           18.0685    14.5750   -19.6695 C             1 RES     
    9050 H           17.6331    15.5452   -19.9087 H             1 RES     
    9051 H           17.3355    13.7907   -19.8584 H             1 RES     
    9052 O           10.9545    16.4317     3.0000 O             1 RES     
    9053 H           10.8806    15.5267     3.3118 H             1 RES     
    9054 C           46.8849     0.4588   -20.5091 C             1 RES     
    9055 H           46.7448     1.5192   -20.5393 H             1 RES     
    9056 H           47.1910     0.1115   -21.4739 H             1 RES     
    9057 H           47.6387     0.2187   -19.7877 H             1 RES     
    9058 C           37.9666    -0.0891     1.6071 C             1 RES     
    9059 H           37.2644     0.7095     1.3678 H             1 RES     
    9060 H           37.4976    -1.0547     1.4181 H             1 RES     
    9061 C           39.2228     0.0518     0.7275 C             1 RES     
    9062 H           39.9250    -0.7468     0.9667 H             1 RES     
    9063 H           39.6919     1.0174     0.9165 H             1 RES     
    9064 C           38.8243    -0.0432    -0.7570 C             1 RES     
    9065 H           38.1221     0.7554    -0.9962 H             1 RES     
    9066 H           38.3552    -1.0088    -0.9459 H             1 RES     
    9067 C           40.0805     0.0977    -1.6365 C             1 RES     
    9068 H           40.7827    -0.7009    -1.3973 H             1 RES     
    9069 H           40.5496     1.0633    -1.4476 H             1 RES     
    9070 C           39.6820     0.0027    -3.1210 C             1 RES     
    9071 H           38.9798     0.8014    -3.3603 H             1 RES     
    9072 H           39.2129    -0.9629    -3.3100 H             1 RES     
    9073 C           40.9382     0.1437    -4.0006 C             1 RES     
    9074 H           41.6404    -0.6550    -3.7614 H             1 RES     
    9075 H           41.4073     1.1093    -3.8117 H             1 RES     
    9076 C           40.5397     0.0487    -5.4851 C             1 RES     
    9077 H           39.8375     0.8473    -5.7243 H             1 RES     
    9078 H           40.0706    -0.9169    -5.6740 H             1 RES     
    9079 C           41.7959     0.1896    -6.3647 C             1 RES     
    9080 H           42.4981    -0.6090    -6.1254 H             1 RES     
    9081 H           42.2649     1.1552    -6.1757 H             1 RES     
    9082 C           41.3973     0.0946    -7.8492 C             1 RES     
    9083 H           40.6952     0.8932    -8.0884 H             1 RES     
    9084 H           40.9283    -0.8710    -8.0381 H             1 RES     
    9085 C           42.6536     0.2355    -8.7287 C             1 RES     
    9086 H           43.3557    -0.5631    -8.4895 H             1 RES     
    9087 H           43.1226     1.2011    -8.5398 H             1 RES     
    9088 C           42.2550     0.1405   -10.2132 C             1 RES     
    9089 H           41.5528     0.9392   -10.4525 H             1 RES     
    9090 H           41.7860    -0.8251   -10.4022 H             1 RES     
    9091 C           43.5112     0.2815   -11.0928 C             1 RES     
    9092 H           44.2134    -0.5172   -10.8536 H             1 RES     
    9093 H           43.9803     1.2471   -10.9039 H             1 RES     
    9094 C           43.1127     0.1865   -12.5773 C             1 RES     
    9095 H           42.4105     0.9851   -12.8165 H             1 RES     
    9096 H           42.6436    -0.7791   -12.7662 H             1 RES     
    9097 C           44.3689     0.3274   -13.4569 C             1 RES     
    9098 H           45.0711    -0.4712   -13.2176 H             1 RES     
    9099 H           44.8380     1.2930   -13.2679 H             1 RES     
    9100 C           43.9704     0.2324   -14.9414 C             1 RES     
    9101 H           43.2682     1.0310   -15.1806 H             1 RES     
    9102 H           43.5013    -0.7332   -15.1303 H             1 RES     
    9103 C           45.2266     0.3733   -15.8209 C             1 RES     
    9104 H           45.9288    -0.4253   -15.5817 H             1 RES     
    9105 H           45.6957     1.3389   -15.6320 H             1 RES     
    9106 C           44.8281     0.2784   -17.3054 C             1 RES     
    9107 H           44.1259     1.0770   -17.5446 H             1 RES     
    9108 H           44.3590    -0.6872   -17.4944 H             1 RES     
    9109 C           46.0843     0.4193   -18.1850 C             1 RES     
    9110 H           46.7865    -0.3794   -17.9457 H             1 RES     
    9111 H           46.5533     1.3849   -17.9960 H             1 RES     
    9112 C           45.6857     0.3243   -19.6695 C             1 RES     
    9113 H           44.9836     1.1229   -19.9087 H             1 RES     
    9114 H           45.2167    -0.6413   -19.8584 H             1 RES     
    9115 O           38.3406     0.0000     3.0000 O             1 RES     
    9116 H           38.5369    -0.8865     3.3118 H             1 RES     
    9117 C           46.7832    42.4260   -20.5091 C             1 RES     
    9118 H           46.8747    43.4916   -20.5393 H             1 RES     
    9119 H           47.0074    42.0209   -21.4739 H             1 RES     
    9120 H           47.4677    42.0292   -19.7877 H             1 RES     
    9121 C           37.9562    43.8113     1.6071 C             1 RES     
    9122 H           37.4425    44.7424     1.3678 H             1 RES     
    9123 H           37.2902    42.9693     1.4181 H             1 RES     
    9124 C           39.2133    43.6784     0.7275 C             1 RES     
    9125 H           39.7270    42.7473     0.9667 H             1 RES     
    9126 H           39.8793    44.5203     0.9165 H             1 RES     
    9127 C           38.8036    43.6715    -0.7570 C             1 RES     
    9128 H           38.2899    44.6026    -0.9962 H             1 RES     
    9129 H           38.1377    42.8295    -0.9459 H             1 RES     
    9130 C           40.0608    43.5386    -1.6365 C             1 RES     
    9131 H           40.5745    42.6075    -1.3973 H             1 RES     
    9132 H           40.7267    44.3805    -1.4476 H             1 RES     
    9133 C           39.6511    43.5316    -3.1210 C             1 RES     
    9134 H           39.1374    44.4627    -3.3603 H             1 RES     
    9135 H           38.9851    42.6897    -3.3100 H             1 RES     
    9136 C           40.9082    43.3987    -4.0006 C             1 RES     
    9137 H           41.4219    42.4676    -3.7614 H             1 RES     
    9138 H           41.5742    44.2407    -3.8117 H             1 RES     
    9139 C           40.4986    43.3918    -5.4851 C             1 RES     
    9140 H           39.9848    44.3229    -5.7243 H             1 RES     
    9141 H           39.8326    42.5499    -5.6740 H             1 RES     
    9142 C           41.7557    43.2589    -6.3647 C             1 RES     
    9143 H           42.2694    42.3278    -6.1254 H             1 RES     
    9144 H           42.4216    44.1009    -6.1757 H             1 RES     
    9145 C           41.3460    43.2520    -7.8492 C             1 RES     
    9146 H           40.8323    44.1831    -8.0884 H             1 RES     
    9147 H           40.6800    42.4100    -8.0381 H             1 RES     
    9148 C           42.6031    43.1191    -8.7287 C             1 RES     
    9149 H           43.1168    42.1880    -8.4895 H             1 RES     
    9150 H           43.2691    43.9610    -8.5398 H             1 RES     
    9151 C           42.1935    43.1121   -10.2132 C             1 RES     
    9152 H           41.6797    44.0432   -10.4525 H             1 RES     
    9153 H           41.5275    42.2702   -10.4022 H             1 RES     
    9154 C           43.4506    42.9792   -11.0928 C             1 RES     
    9155 H           43.9643    42.0482   -10.8536 H             1 RES     
    9156 H           44.1165    43.8212   -10.9039 H             1 RES     
    9157 C           43.0409    42.9723   -12.5773 C             1 RES     
    9158 H           42.5272    43.9034   -12.8165 H             1 RES     
    9159 H           42.3749    42.1304   -12.7662 H             1 RES     
    9160 C           44.2980    42.8394   -13.4569 C             1 RES     
    9161 H           44.8117    41.9083   -13.2176 H             1 RES     
    9162 H           44.9640    43.6814   -13.2679 H             1 RES     
    9163 C           43.8884    42.8325   -14.9414 C             1 RES     
    9164 H           43.3746    43.7636   -15.1806 H             1 RES     
    9165 H           43.2224    41.9905   -15.1303 H             1 RES     
    9166 C           45.1455    42.6996   -15.8209 C             1 RES     
    9167 H           45.6592    41.7685   -15.5817 H             1 RES     
    9168 H           45.8114    43.5415   -15.6320 H             1 RES     
    9169 C           44.7358    42.6926   -17.3054 C             1 RES     
    9170 H           44.2221    43.6237   -17.5446 H             1 RES     
    9171 H           44.0698    41.8507   -17.4944 H             1 RES     
    9172 C           45.9929    42.5598   -18.1850 C             1 RES     
    9173 H           46.5066    41.6287   -17.9457 H             1 RES     
    9174 H           46.6589    43.4017   -17.9960 H             1 RES     
    9175 C           45.5833    42.5528   -19.6695 C             1 RES     
    9176 H           45.0695    43.4839   -19.9087 H             1 RES     
    9177 H           44.9173    41.7109   -19.8584 H             1 RES     
    9178 O           38.3406    43.8178     3.0000 O             1 RES     
    9179 H           38.3414    42.9098     3.3118 H             1 RES     
    9180 C           19.4986    10.4930   -20.5091 C             1 RES     
    9181 H           19.4732    11.5622   -20.5393 H             1 RES     
    9182 H           19.7657    10.1148   -21.4739 H             1 RES     
    9183 H           20.2223    10.1733   -19.7877 H             1 RES     
    9184 C           10.5731    10.9060     1.6071 C             1 RES     
    9185 H            9.9607    11.7754     1.3678 H             1 RES     
    9186 H           10.0030     9.9964     1.4181 H             1 RES     
    9187 C           11.8372    10.9112     0.7275 C             1 RES     
    9188 H           12.4495    10.0418     0.9667 H             1 RES     
    9189 H           12.4072    11.8208     0.9165 H             1 RES     
    9190 C           11.4307    10.8596    -0.7570 C             1 RES     
    9191 H           10.8184    11.7290    -0.9962 H             1 RES     
    9192 H           10.8607     9.9499    -0.9459 H             1 RES     
    9193 C           12.6948    10.8647    -1.6365 C             1 RES     
    9194 H           13.3072     9.9953    -1.3973 H             1 RES     
    9195 H           13.2649    11.7744    -1.4476 H             1 RES     
    9196 C           12.2884    10.8131    -3.1210 C             1 RES     
    9197 H           11.6760    11.6825    -3.3603 H             1 RES     
    9198 H           11.7183     9.9035    -3.3100 H             1 RES     
    9199 C           13.5525    10.8183    -4.0006 C             1 RES     
    9200 H           14.1648     9.9489    -3.7614 H             1 RES     
    9201 H           14.1225    11.7279    -3.8117 H             1 RES     
    9202 C           13.1460    10.7667    -5.4851 C             1 RES     
    9203 H           12.5337    11.6361    -5.7243 H             1 RES     
    9204 H           12.5760     9.8570    -5.6740 H             1 RES     
    9205 C           14.4101    10.7719    -6.3647 C             1 RES     
    9206 H           15.0225     9.9024    -6.1254 H             1 RES     
    9207 H           14.9802    11.6815    -6.1757 H             1 RES     
    9208 C           14.0037    10.7202    -7.8492 C             1 RES     
    9209 H           13.3913    11.5896    -8.0884 H             1 RES     
    9210 H           13.4336     9.8106    -8.0381 H             1 RES     
    9211 C           15.2678    10.7254    -8.7287 C             1 RES     
    9212 H           15.8801     9.8560    -8.4895 H             1 RES     
    9213 H           15.8378    11.6351    -8.5398 H             1 RES     
    9214 C           14.8613    10.6738   -10.2132 C             1 RES     
    9215 H           14.2490    11.5432   -10.4525 H             1 RES     
    9216 H           14.2913     9.7641   -10.4022 H             1 RES     
    9217 C           16.1254    10.6790   -11.0928 C             1 RES     
    9218 H           16.7378     9.8096   -10.8536 H             1 RES     
    9219 H           16.6955    11.5886   -10.9039 H             1 RES     
    9220 C           15.7190    10.6273   -12.5773 C             1 RES     
    9221 H           15.1066    11.4968   -12.8165 H             1 RES     
    9222 H           15.1490     9.7177   -12.7662 H             1 RES     
    9223 C           16.9831    10.6325   -13.4569 C             1 RES     
    9224 H           17.5954     9.7631   -13.2176 H             1 RES     
    9225 H           17.5531    11.5422   -13.2679 H             1 RES     
    9226 C           16.5767    10.5809   -14.9414 C             1 RES     
    9227 H           15.9643    11.4503   -15.1806 H             1 RES     
    9228 H           16.0066     9.6713   -15.1303 H             1 RES     
    9229 C           17.8407    10.5861   -15.8209 C             1 RES     
    9230 H           18.4531     9.7167   -15.5817 H             1 RES     
    9231 H           18.4108    11.4957   -15.6320 H             1 RES     
    9232 C           17.4343    10.5345   -17.3054 C             1 RES     
    9233 H           16.8220    11.4039   -17.5446 H             1 RES     
    9234 H           16.8643     9.6248   -17.4944 H             1 RES     
    9235 C           18.6984    10.5396   -18.1850 C             1 RES     
    9236 H           19.3108     9.6702   -17.9457 H             1 RES     
    9237 H           19.2684    11.4493   -17.9960 H             1 RES     
    9238 C           18.2920    10.4880   -19.6695 C             1 RES     
    9239 H           17.6796    11.3574   -19.9087 H             1 RES     
    9240 H           17.7219     9.5784   -19.8584 H             1 RES     
    9241 O           10.9545    10.9545     3.0000 O             1 RES     
    9242 H           11.0544    10.0520     3.3118 H             1 RES     
    9243 C           52.2559    -1.4189   -20.5091 C             1 RES     
    9244 H           52.3509    -0.3535   -20.5393 H             1 RES     
    9245 H           52.4788    -1.8247   -21.4739 H             1 RES     
    9246 H           52.9392    -1.8178   -19.7877 H             1 RES     
    9247 C           43.4334    -0.0053     1.6071 C             1 RES     
    9248 H           42.9227     0.9275     1.3678 H             1 RES     
    9249 H           42.7647    -0.8451     1.4181 H             1 RES     
    9250 C           44.6901    -0.1422     0.7275 C             1 RES     
    9251 H           45.2008    -1.0749     0.9667 H             1 RES     
    9252 H           45.3587     0.6976     0.9165 H             1 RES     
    9253 C           44.2804    -0.1478    -0.7570 C             1 RES     
    9254 H           43.7697     0.7849    -0.9962 H             1 RES     
    9255 H           43.6117    -0.9876    -0.9459 H             1 RES     
    9256 C           45.5371    -0.2847    -1.6365 C             1 RES     
    9257 H           46.0478    -1.2175    -1.3973 H             1 RES     
    9258 H           46.2057     0.5551    -1.4476 H             1 RES     
    9259 C           45.1274    -0.2904    -3.1210 C             1 RES     
    9260 H           44.6166     0.6424    -3.3603 H             1 RES     
    9261 H           44.4587    -1.1302    -3.3100 H             1 RES     
    9262 C           46.3841    -0.4273    -4.0006 C             1 RES     
    9263 H           46.8948    -1.3600    -3.7614 H             1 RES     
    9264 H           47.0527     0.4125    -3.8117 H             1 RES     
    9265 C           45.9744    -0.4329    -5.4851 C             1 RES     
    9266 H           45.4636     0.4998    -5.7243 H             1 RES     
    9267 H           45.3057    -1.2727    -5.6740 H             1 RES     
    9268 C           47.2311    -0.5698    -6.3647 C             1 RES     
    9269 H           47.7418    -1.5026    -6.1254 H             1 RES     
    9270 H           47.8997     0.2700    -6.1757 H             1 RES     
    9271 C           46.8214    -0.5755    -7.8492 C             1 RES     
    9272 H           46.3106     0.3573    -8.0884 H             1 RES     
    9273 H           46.1527    -1.4153    -8.0381 H             1 RES     
    9274 C           48.0781    -0.7124    -8.7287 C             1 RES     
    9275 H           48.5888    -1.6451    -8.4895 H             1 RES     
    9276 H           48.7467     0.1274    -8.5398 H             1 RES     
    9277 C           47.6684    -0.7180   -10.2132 C             1 RES     
    9278 H           47.1576     0.2147   -10.4525 H             1 RES     
    9279 H           46.9997    -1.5578   -10.4022 H             1 RES     
    9280 C           48.9251    -0.8549   -11.0928 C             1 RES     
    9281 H           49.4358    -1.7877   -10.8536 H             1 RES     
    9282 H           49.5937    -0.0151   -10.9039 H             1 RES     
    9283 C           48.5154    -0.8605   -12.5773 C             1 RES     
    9284 H           48.0046     0.0722   -12.8165 H             1 RES     
    9285 H           47.8467    -1.7003   -12.7662 H             1 RES     
    9286 C           49.7721    -0.9975   -13.4569 C             1 RES     
    9287 H           50.2828    -1.9302   -13.2176 H             1 RES     
    9288 H           50.4407    -0.1576   -13.2679 H             1 RES     
    9289 C           49.3624    -1.0031   -14.9414 C             1 RES     
    9290 H           48.8516    -0.0703   -15.1806 H             1 RES     
    9291 H           48.6937    -1.8429   -15.1303 H             1 RES     
    9292 C           50.6191    -1.1400   -15.8209 C             1 RES     
    9293 H           51.1298    -2.0727   -15.5817 H             1 RES     
    9294 H           51.2877    -0.3002   -15.6320 H             1 RES     
    9295 C           50.2094    -1.1456   -17.3054 C             1 RES     
    9296 H           49.6986    -0.2129   -17.5446 H             1 RES     
    9297 H           49.5407    -1.9854   -17.4944 H             1 RES     
    9298 C           51.4661    -1.2825   -18.1850 C             1 RES     
    9299 H           51.9768    -2.2153   -17.9457 H             1 RES     
    9300 H           52.1347    -0.4427   -17.9960 H             1 RES     
    9301 C           51.0564    -1.2882   -19.6695 C             1 RES     
    9302 H           50.5456    -0.3554   -19.9087 H             1 RES     
    9303 H           50.3877    -2.1280   -19.8584 H             1 RES     
    9304 O           43.8178     0.0000     3.0000 O             1 RES     
    9305 H           43.8157    -0.9080     3.3118 H             1 RES     
    9306 C           46.8705     4.8020   -20.5091 C             1 RES     
    9307 H           46.8718     5.8716   -20.5393 H             1 RES     
    9308 H           47.1280     4.4173   -21.4739 H             1 RES     
    9309 H           47.5860     4.4643   -19.7877 H             1 RES     
    9310 C           37.9581     5.4383     1.6071 C             1 RES     
    9311 H           37.3677     6.3228     1.3678 H             1 RES     
    9312 H           37.3655     4.5433     1.4181 H             1 RES     
    9313 C           39.2219     5.4119     0.7275 C             1 RES     
    9314 H           39.8123     4.5274     0.9667 H             1 RES     
    9315 H           39.8146     6.3070     0.9165 H             1 RES     
    9316 C           38.8143     5.3704    -0.7570 C             1 RES     
    9317 H           38.2239     6.2549    -0.9962 H             1 RES     
    9318 H           38.2217     4.4754    -0.9459 H             1 RES     
    9319 C           40.0782     5.3440    -1.6365 C             1 RES     
    9320 H           40.6686     4.4595    -1.3973 H             1 RES     
    9321 H           40.6708     6.2391    -1.4476 H             1 RES     
    9322 C           39.6706     5.3025    -3.1210 C             1 RES     
    9323 H           39.0802     6.1870    -3.3603 H             1 RES     
    9324 H           39.0779     4.4075    -3.3100 H             1 RES     
    9325 C           40.9344     5.2761    -4.0006 C             1 RES     
    9326 H           41.5248     4.3916    -3.7614 H             1 RES     
    9327 H           41.5270     6.1712    -3.8117 H             1 RES     
    9328 C           40.5268     5.2346    -5.4851 C             1 RES     
    9329 H           39.9364     6.1191    -5.7243 H             1 RES     
    9330 H           39.9341     4.3396    -5.6740 H             1 RES     
    9331 C           41.7906     5.2082    -6.3647 C             1 RES     
    9332 H           42.3810     4.3237    -6.1254 H             1 RES     
    9333 H           42.3832     6.1033    -6.1757 H             1 RES     
    9334 C           41.3830     5.1667    -7.8492 C             1 RES     
    9335 H           40.7926     6.0512    -8.0884 H             1 RES     
    9336 H           40.7904     4.2717    -8.0381 H             1 RES     
    9337 C           42.6468     5.1403    -8.7287 C             1 RES     
    9338 H           43.2372     4.2558    -8.4895 H             1 RES     
    9339 H           43.2395     6.0354    -8.5398 H             1 RES     
    9340 C           42.2392     5.0988   -10.2132 C             1 RES     
    9341 H           41.6488     5.9833   -10.4525 H             1 RES     
    9342 H           41.6466     4.2038   -10.4022 H             1 RES     
    9343 C           43.5031     5.0724   -11.0928 C             1 RES     
    9344 H           44.0934     4.1879   -10.8536 H             1 RES     
    9345 H           44.0957     5.9675   -10.9039 H             1 RES     
    9346 C           43.0954     5.0309   -12.5773 C             1 RES     
    9347 H           42.5051     5.9154   -12.8165 H             1 RES     
    9348 H           42.5028     4.1359   -12.7662 H             1 RES     
    9349 C           44.3593     5.0045   -13.4569 C             1 RES     
    9350 H           44.9497     4.1200   -13.2176 H             1 RES     
    9351 H           44.9519     5.8996   -13.2679 H             1 RES     
    9352 C           43.9517     4.9630   -14.9414 C             1 RES     
    9353 H           43.3613     5.8475   -15.1806 H             1 RES     
    9354 H           43.3590     4.0680   -15.1303 H             1 RES     
    9355 C           45.2155     4.9366   -15.8209 C             1 RES     
    9356 H           45.8059     4.0521   -15.5817 H             1 RES     
    9357 H           45.8081     5.8317   -15.6320 H             1 RES     
    9358 C           44.8079     4.8951   -17.3054 C             1 RES     
    9359 H           44.2175     5.7796   -17.5446 H             1 RES     
    9360 H           44.2152     4.0001   -17.4944 H             1 RES     
    9361 C           46.0717     4.8687   -18.1850 C             1 RES     
    9362 H           46.6621     3.9842   -17.9457 H             1 RES     
    9363 H           46.6644     5.7638   -17.9960 H             1 RES     
    9364 C           45.6641     4.8272   -19.6695 C             1 RES     
    9365 H           45.0737     5.7117   -19.9087 H             1 RES     
    9366 H           45.0715     3.9322   -19.8584 H             1 RES     
    9367 O           38.3406     5.4772     3.0000 O             1 RES     
    9368 H           38.4179     4.5726     3.3118 H             1 RES     
    9369 C           24.8000    18.2167   -20.5091 C             1 RES     
    9370 H           24.4963    19.2423   -20.5393 H             1 RES     
    9371 H           25.1565    17.9214   -21.4739 H             1 RES     
    9372 H           25.5821    18.0971   -19.7877 H             1 RES     
    9373 C           16.0762    16.2853     1.6071 C             1 RES     
    9374 H           15.2581    16.9648     1.3678 H             1 RES     
    9375 H           15.7634    15.2584     1.4181 H             1 RES     
    9376 C           17.2951    16.6204     0.7275 C             1 RES     
    9377 H           18.1132    15.9410     0.9667 H             1 RES     
    9378 H           17.6079    17.6473     0.9165 H             1 RES     
    9379 C           16.9162    16.4644    -0.7570 C             1 RES     
    9380 H           16.0981    17.1438    -0.9962 H             1 RES     
    9381 H           16.6034    15.4375    -0.9459 H             1 RES     
    9382 C           18.1351    16.7994    -1.6365 C             1 RES     
    9383 H           18.9532    16.1200    -1.3973 H             1 RES     
    9384 H           18.4479    17.8263    -1.4476 H             1 RES     
    9385 C           17.7563    16.6435    -3.1210 C             1 RES     
    9386 H           16.9382    17.3229    -3.3603 H             1 RES     
    9387 H           17.4434    15.6166    -3.3100 H             1 RES     
    9388 C           18.9752    16.9785    -4.0006 C             1 RES     
    9389 H           19.7932    16.2991    -3.7614 H             1 RES     
    9390 H           19.2880    18.0054    -3.8117 H             1 RES     
    9391 C           18.5963    16.8225    -5.4851 C             1 RES     
    9392 H           17.7782    17.5020    -5.7243 H             1 RES     
    9393 H           18.2835    15.7956    -5.6740 H             1 RES     
    9394 C           19.8152    17.1576    -6.3647 C             1 RES     
    9395 H           20.6333    16.4782    -6.1254 H             1 RES     
    9396 H           20.1280    18.1845    -6.1757 H             1 RES     
    9397 C           19.4363    17.0016    -7.8492 C             1 RES     
    9398 H           18.6182    17.6810    -8.0884 H             1 RES     
    9399 H           19.1235    15.9747    -8.0381 H             1 RES     
    9400 C           20.6552    17.3366    -8.7287 C             1 RES     
    9401 H           21.4733    16.6572    -8.4895 H             1 RES     
    9402 H           20.9680    18.3635    -8.5398 H             1 RES     
    9403 C           20.2764    17.1807   -10.2132 C             1 RES     
    9404 H           19.4583    17.8601   -10.4525 H             1 RES     
    9405 H           19.9636    16.1538   -10.4022 H             1 RES     
    9406 C           21.4953    17.5157   -11.0928 C             1 RES     
    9407 H           22.3134    16.8363   -10.8536 H             1 RES     
    9408 H           21.8081    18.5426   -10.9039 H             1 RES     
    9409 C           21.1164    17.3597   -12.5773 C             1 RES     
    9410 H           20.2983    18.0392   -12.8165 H             1 RES     
    9411 H           20.8036    16.3328   -12.7662 H             1 RES     
    9412 C           22.3353    17.6948   -13.4569 C             1 RES     
    9413 H           23.1534    17.0153   -13.2176 H             1 RES     
    9414 H           22.6481    18.7217   -13.2679 H             1 RES     
    9415 C           21.9564    17.5388   -14.9414 C             1 RES     
    9416 H           21.1383    18.2182   -15.1806 H             1 RES     
    9417 H           21.6436    16.5119   -15.1303 H             1 RES     
    9418 C           23.1753    17.8738   -15.8209 C             1 RES     
    9419 H           23.9934    17.1944   -15.5817 H             1 RES     
    9420 H           23.4881    18.9007   -15.6320 H             1 RES     
    9421 C           22.7965    17.7179   -17.3054 C             1 RES     
    9422 H           21.9784    18.3973   -17.5446 H             1 RES     
    9423 H           22.4837    16.6910   -17.4944 H             1 RES     
    9424 C           24.0154    18.0529   -18.1850 C             1 RES     
    9425 H           24.8335    17.3735   -17.9457 H             1 RES     
    9426 H           24.3282    19.0798   -17.9960 H             1 RES     
    9427 C           23.6365    17.8969   -19.6695 C             1 RES     
    9428 H           22.8184    18.5764   -19.9087 H             1 RES     
    9429 H           23.3237    16.8700   -19.8584 H             1 RES     
    9430 O           16.4317    16.4317     3.0000 O             1 RES     
    9431 H           16.7638    15.5866     3.3118 H             1 RES     
    9432 C           57.7921     6.4847   -20.5091 C             1 RES     
    9433 H           57.5841     7.5338   -20.5393 H             1 RES     
    9434 H           58.1200     6.1578   -21.4739 H             1 RES     
    9435 H           58.5599     6.2936   -19.7877 H             1 RES     
    9436 C           48.9276     5.3642     1.6071 C             1 RES     
    9437 H           48.1755     6.1160     1.3678 H             1 RES     
    9438 H           48.5216     4.3705     1.4181 H             1 RES     
    9439 C           50.1721     5.5857     0.7275 C             1 RES     
    9440 H           50.9242     4.8339     0.9667 H             1 RES     
    9441 H           50.5781     6.5794     0.9165 H             1 RES     
    9442 C           49.7805     5.4652    -0.7570 C             1 RES     
    9443 H           49.0284     6.2170    -0.9962 H             1 RES     
    9444 H           49.3746     4.4715    -0.9459 H             1 RES     
    9445 C           51.0251     5.6867    -1.6365 C             1 RES     
    9446 H           51.7772     4.9349    -1.3973 H             1 RES     
    9447 H           51.4311     6.6805    -1.4476 H             1 RES     
    9448 C           50.6335     5.5662    -3.1210 C             1 RES     
    9449 H           49.8814     6.3181    -3.3603 H             1 RES     
    9450 H           50.2275     4.5725    -3.3100 H             1 RES     
    9451 C           51.8780     5.7877    -4.0006 C             1 RES     
    9452 H           52.6301     5.0359    -3.7614 H             1 RES     
    9453 H           52.2840     6.7815    -3.8117 H             1 RES     
    9454 C           51.4864     5.6673    -5.4851 C             1 RES     
    9455 H           50.7343     6.4191    -5.7243 H             1 RES     
    9456 H           51.0805     4.6735    -5.6740 H             1 RES     
    9457 C           52.7310     5.8887    -6.3647 C             1 RES     
    9458 H           53.4831     5.1369    -6.1254 H             1 RES     
    9459 H           53.1370     6.8825    -6.1757 H             1 RES     
    9460 C           52.3394     5.7683    -7.8492 C             1 RES     
    9461 H           51.5873     6.5201    -8.0884 H             1 RES     
    9462 H           51.9334     4.7745    -8.0381 H             1 RES     
    9463 C           53.5839     5.9897    -8.7287 C             1 RES     
    9464 H           54.3360     5.2379    -8.4895 H             1 RES     
    9465 H           53.9899     6.9835    -8.5398 H             1 RES     
    9466 C           53.1923     5.8693   -10.2132 C             1 RES     
    9467 H           52.4402     6.6211   -10.4525 H             1 RES     
    9468 H           52.7863     4.8755   -10.4022 H             1 RES     
    9469 C           54.4369     6.0907   -11.0928 C             1 RES     
    9470 H           55.1890     5.3389   -10.8536 H             1 RES     
    9471 H           54.8429     7.0845   -10.9039 H             1 RES     
    9472 C           54.0453     5.9703   -12.5773 C             1 RES     
    9473 H           53.2932     6.7221   -12.8165 H             1 RES     
    9474 H           53.6393     4.9765   -12.7662 H             1 RES     
    9475 C           55.2898     6.1917   -13.4569 C             1 RES     
    9476 H           56.0419     5.4399   -13.2176 H             1 RES     
    9477 H           55.6958     7.1855   -13.2679 H             1 RES     
    9478 C           54.8982     6.0713   -14.9414 C             1 RES     
    9479 H           54.1461     6.8231   -15.1806 H             1 RES     
    9480 H           54.4922     5.0775   -15.1303 H             1 RES     
    9481 C           56.1428     6.2927   -15.8209 C             1 RES     
    9482 H           56.8949     5.5409   -15.5817 H             1 RES     
    9483 H           56.5488     7.2865   -15.6320 H             1 RES     
    9484 C           55.7512     6.1723   -17.3054 C             1 RES     
    9485 H           54.9991     6.9241   -17.5446 H             1 RES     
    9486 H           55.3452     5.1785   -17.4944 H             1 RES     
    9487 C           56.9957     6.3937   -18.1850 C             1 RES     
    9488 H           57.7478     5.6419   -17.9457 H             1 RES     
    9489 H           57.4017     7.3875   -17.9960 H             1 RES     
    9490 C           56.6041     6.2733   -19.6695 C             1 RES     
    9491 H           55.8520     7.0251   -19.9087 H             1 RES     
    9492 H           56.1981     5.2795   -19.8584 H             1 RES     
    9493 O           49.2950     5.4772     3.0000 O             1 RES     
    9494 H           49.5480     4.6052     3.3118 H             1 RES     
    9495 C           13.8936    28.9291   -20.5091 C             1 RES     
    9496 H           13.6196    29.9630   -20.5393 H             1 RES     
    9497 H           14.2414    28.6236   -21.4739 H             1 RES     
    9498 H           14.6718    28.7870   -19.7877 H             1 RES     
    9499 C            5.1177    27.2501     1.6071 C             1 RES     
    9500 H            4.3195    27.9528     1.3678 H             1 RES     
    9501 H            4.7754    26.2326     1.4181 H             1 RES     
    9502 C            6.3457    27.5498     0.7275 C             1 RES     
    9503 H            7.1439    26.8471     0.9667 H             1 RES     
    9504 H            6.6880    28.5673     0.9165 H             1 RES     
    9505 C            5.9625    27.4049    -0.7570 C             1 RES     
    9506 H            5.1644    28.1076    -0.9962 H             1 RES     
    9507 H            5.6202    26.3874    -0.9459 H             1 RES     
    9508 C            7.1906    27.7046    -1.6365 C             1 RES     
    9509 H            7.9887    27.0019    -1.3973 H             1 RES     
    9510 H            7.5329    28.7221    -1.4476 H             1 RES     
    9511 C            6.8074    27.5596    -3.1210 C             1 RES     
    9512 H            6.0092    28.2624    -3.3603 H             1 RES     
    9513 H            6.4651    26.5422    -3.3100 H             1 RES     
    9514 C            8.0354    27.8594    -4.0006 C             1 RES     
    9515 H            8.8336    27.1566    -3.7614 H             1 RES     
    9516 H            8.3777    28.8768    -3.8117 H             1 RES     
    9517 C            7.6522    27.7144    -5.4851 C             1 RES     
    9518 H            6.8541    28.4171    -5.7243 H             1 RES     
    9519 H            7.3099    26.6969    -5.6740 H             1 RES     
    9520 C            8.8803    28.0141    -6.3647 C             1 RES     
    9521 H            9.6784    27.3114    -6.1254 H             1 RES     
    9522 H            9.2226    29.0316    -6.1757 H             1 RES     
    9523 C            8.4971    27.8692    -7.8492 C             1 RES     
    9524 H            7.6989    28.5719    -8.0884 H             1 RES     
    9525 H            8.1548    26.8517    -8.0381 H             1 RES     
    9526 C            9.7251    28.1689    -8.7287 C             1 RES     
    9527 H           10.5233    27.4662    -8.4895 H             1 RES     
    9528 H           10.0674    29.1864    -8.5398 H             1 RES     
    9529 C            9.3419    28.0239   -10.2132 C             1 RES     
    9530 H            8.5438    28.7267   -10.4525 H             1 RES     
    9531 H            8.9996    27.0065   -10.4022 H             1 RES     
    9532 C           10.5700    28.3237   -11.0928 C             1 RES     
    9533 H           11.3681    27.6209   -10.8536 H             1 RES     
    9534 H           10.9123    29.3411   -10.9039 H             1 RES     
    9535 C           10.1868    28.1787   -12.5773 C             1 RES     
    9536 H            9.3886    28.8814   -12.8165 H             1 RES     
    9537 H            9.8445    27.1612   -12.7662 H             1 RES     
    9538 C           11.4148    28.4784   -13.4569 C             1 RES     
    9539 H           12.2130    27.7757   -13.2176 H             1 RES     
    9540 H           11.7571    29.4959   -13.2679 H             1 RES     
    9541 C           11.0316    28.3335   -14.9414 C             1 RES     
    9542 H           10.2335    29.0362   -15.1806 H             1 RES     
    9543 H           10.6893    27.3160   -15.1303 H             1 RES     
    9544 C           12.2597    28.6332   -15.8209 C             1 RES     
    9545 H           13.0578    27.9305   -15.5817 H             1 RES     
    9546 H           12.6020    29.6507   -15.6320 H             1 RES     
    9547 C           11.8765    28.4882   -17.3054 C             1 RES     
    9548 H           11.0783    29.1910   -17.5446 H             1 RES     
    9549 H           11.5342    27.4708   -17.4944 H             1 RES     
    9550 C           13.1045    28.7880   -18.1850 C             1 RES     
    9551 H           13.9027    28.0852   -17.9457 H             1 RES     
    9552 H           13.4468    29.8054   -17.9960 H             1 RES     
    9553 C           12.7213    28.6430   -19.6695 C             1 RES     
    9554 H           11.9232    29.3457   -19.9087 H             1 RES     
    9555 H           12.3790    27.6255   -19.8584 H             1 RES     
    9556 O            5.4772    27.3861     3.0000 O             1 RES     
    9557 H            5.7848    26.5319     3.3118 H             1 RES     
    9558 C           57.6411    25.4998   -20.5091 C             1 RES     
    9559 H           57.7952    26.5582   -20.5393 H             1 RES     
    9560 H           57.8411    25.0823   -21.4739 H             1 RES     
    9561 H           58.3011    25.0635   -19.7877 H             1 RES     
    9562 C           48.9109    27.4023     1.6071 C             1 RES     
    9563 H           48.4529    28.3620     1.3678 H             1 RES     
    9564 H           48.1966    26.6010     1.4181 H             1 RES     
    9565 C           50.1580    27.1956     0.7275 C             1 RES     
    9566 H           50.6161    26.2359     0.9667 H             1 RES     
    9567 H           50.8724    27.9969     0.9165 H             1 RES     
    9568 C           49.7487    27.2128    -0.7570 C             1 RES     
    9569 H           49.2906    28.1725    -0.9962 H             1 RES     
    9570 H           49.0343    26.4115    -0.9459 H             1 RES     
    9571 C           50.9958    27.0061    -1.6365 C             1 RES     
    9572 H           51.4538    26.0464    -1.3973 H             1 RES     
    9573 H           51.7102    27.8074    -1.4476 H             1 RES     
    9574 C           50.5864    27.0233    -3.1210 C             1 RES     
    9575 H           50.1284    27.9830    -3.3603 H             1 RES     
    9576 H           49.8721    26.2220    -3.3100 H             1 RES     
    9577 C           51.8335    26.8167    -4.0006 C             1 RES     
    9578 H           52.2916    25.8570    -3.7614 H             1 RES     
    9579 H           52.5479    27.6180    -3.8117 H             1 RES     
    9580 C           51.4242    26.8339    -5.4851 C             1 RES     
    9581 H           50.9661    27.7936    -5.7243 H             1 RES     
    9582 H           50.7098    26.0326    -5.6740 H             1 RES     
    9583 C           52.6713    26.6272    -6.3647 C             1 RES     
    9584 H           53.1293    25.6675    -6.1254 H             1 RES     
    9585 H           53.3857    27.4285    -6.1757 H             1 RES     
    9586 C           52.2619    26.6444    -7.8492 C             1 RES     
    9587 H           51.8039    27.6041    -8.0884 H             1 RES     
    9588 H           51.5476    25.8431    -8.0381 H             1 RES     
    9589 C           53.5090    26.4377    -8.7287 C             1 RES     
    9590 H           53.9671    25.4780    -8.4895 H             1 RES     
    9591 H           54.2234    27.2390    -8.5398 H             1 RES     
    9592 C           53.0997    26.4549   -10.2132 C             1 RES     
    9593 H           52.6416    27.4147   -10.4525 H             1 RES     
    9594 H           52.3853    25.6536   -10.4022 H             1 RES     
    9595 C           54.3468    26.2483   -11.0928 C             1 RES     
    9596 H           54.8048    25.2886   -10.8536 H             1 RES     
    9597 H           55.0612    27.0496   -10.9039 H             1 RES     
    9598 C           53.9374    26.2655   -12.5773 C             1 RES     
    9599 H           53.4794    27.2252   -12.8165 H             1 RES     
    9600 H           53.2231    25.4642   -12.7662 H             1 RES     
    9601 C           55.1845    26.0588   -13.4569 C             1 RES     
    9602 H           55.6426    25.0991   -13.2176 H             1 RES     
    9603 H           55.8989    26.8601   -13.2679 H             1 RES     
    9604 C           54.7752    26.0760   -14.9414 C             1 RES     
    9605 H           54.3172    27.0357   -15.1806 H             1 RES     
    9606 H           54.0608    25.2747   -15.1303 H             1 RES     
    9607 C           56.0223    25.8694   -15.8209 C             1 RES     
    9608 H           56.4803    24.9096   -15.5817 H             1 RES     
    9609 H           56.7367    26.6706   -15.6320 H             1 RES     
    9610 C           55.6130    25.8865   -17.3054 C             1 RES     
    9611 H           55.1549    26.8463   -17.5446 H             1 RES     
    9612 H           54.8986    25.0852   -17.4944 H             1 RES     
    9613 C           56.8601    25.6799   -18.1850 C             1 RES     
    9614 H           57.3181    24.7202   -17.9457 H             1 RES     
    9615 H           57.5744    26.4812   -17.9960 H             1 RES     
    9616 C           56.4507    25.6971   -19.6695 C             1 RES     
    9617 H           55.9927    26.6568   -19.9087 H             1 RES     
    9618 H           55.7363    24.8958   -19.8584 H             1 RES     
    9619 O           49.2950    27.3861     3.0000 O             1 RES     
    9620 H           49.2424    26.4797     3.3118 H             1 RES     
    9621 C           19.4646    -0.8907   -20.5091 C             1 RES     
    9622 H           19.4930     0.1785   -20.5393 H             1 RES     
    9623 H           19.7123    -1.2818   -21.4739 H             1 RES     
    9624 H           20.1713    -1.2463   -19.7877 H             1 RES     
    9625 C           10.5711    -0.0292     1.6071 C             1 RES     
    9626 H           10.0033     0.8699     1.3678 H             1 RES     
    9627 H            9.9560    -0.9090     1.4181 H             1 RES     
    9628 C           11.8339    -0.0876     0.7275 C             1 RES     
    9629 H           12.4017    -0.9867     0.9667 H             1 RES     
    9630 H           12.4490     0.7922     0.9165 H             1 RES     
    9631 C           11.4254    -0.1187    -0.7570 C             1 RES     
    9632 H           10.8575     0.7804    -0.9962 H             1 RES     
    9633 H           10.8103    -0.9985    -0.9459 H             1 RES     
    9634 C           12.6881    -0.1771    -1.6365 C             1 RES     
    9635 H           13.2560    -1.0762    -1.3973 H             1 RES     
    9636 H           13.3032     0.7027    -1.4476 H             1 RES     
    9637 C           12.2796    -0.2083    -3.1210 C             1 RES     
    9638 H           11.7117     0.6909    -3.3603 H             1 RES     
    9639 H           11.6645    -1.0881    -3.3100 H             1 RES     
    9640 C           13.5423    -0.2666    -4.0006 C             1 RES     
    9641 H           14.1102    -1.1658    -3.7614 H             1 RES     
    9642 H           14.1574     0.6132    -3.8117 H             1 RES     
    9643 C           13.1338    -0.2978    -5.4851 C             1 RES     
    9644 H           12.5660     0.6013    -5.7243 H             1 RES     
    9645 H           12.5187    -1.1776    -5.6740 H             1 RES     
    9646 C           14.3966    -0.3562    -6.3647 C             1 RES     
    9647 H           14.9644    -1.2553    -6.1254 H             1 RES     
    9648 H           15.0117     0.5236    -6.1757 H             1 RES     
    9649 C           13.9881    -0.3873    -7.8492 C             1 RES     
    9650 H           13.4202     0.5118    -8.0884 H             1 RES     
    9651 H           13.3730    -1.2671    -8.0381 H             1 RES     
    9652 C           15.2508    -0.4457    -8.7287 C             1 RES     
    9653 H           15.8187    -1.3448    -8.4895 H             1 RES     
    9654 H           15.8659     0.4341    -8.5398 H             1 RES     
    9655 C           14.8423    -0.4768   -10.2132 C             1 RES     
    9656 H           14.2744     0.4223   -10.4525 H             1 RES     
    9657 H           14.2272    -1.3566   -10.4022 H             1 RES     
    9658 C           16.1050    -0.5352   -11.0928 C             1 RES     
    9659 H           16.6729    -1.4343   -10.8536 H             1 RES     
    9660 H           16.7201     0.3446   -10.9039 H             1 RES     
    9661 C           15.6965    -0.5663   -12.5773 C             1 RES     
    9662 H           15.1287     0.3328   -12.8165 H             1 RES     
    9663 H           15.0814    -1.4462   -12.7662 H             1 RES     
    9664 C           16.9593    -0.6247   -13.4569 C             1 RES     
    9665 H           17.5271    -1.5239   -13.2176 H             1 RES     
    9666 H           17.5744     0.2551   -13.2679 H             1 RES     
    9667 C           16.5507    -0.6559   -14.9414 C             1 RES     
    9668 H           15.9829     0.2433   -15.1806 H             1 RES     
    9669 H           15.9357    -1.5357   -15.1303 H             1 RES     
    9670 C           17.8135    -0.7143   -15.8209 C             1 RES     
    9671 H           18.3813    -1.6134   -15.5817 H             1 RES     
    9672 H           18.4286     0.1656   -15.6320 H             1 RES     
    9673 C           17.4050    -0.7454   -17.3054 C             1 RES     
    9674 H           16.8371     0.1537   -17.5446 H             1 RES     
    9675 H           16.7899    -1.6252   -17.4944 H             1 RES     
    9676 C           18.6677    -0.8038   -18.1850 C             1 RES     
    9677 H           19.2356    -1.7029   -17.9457 H             1 RES     
    9678 H           19.2828     0.0760   -17.9960 H             1 RES     
    9679 C           18.2592    -0.8349   -19.6695 C             1 RES     
    9680 H           17.6914     0.0642   -19.9087 H             1 RES     
    9681 H           17.6441    -1.7147   -19.8584 H             1 RES     
    9682 O           10.9545     0.0000     3.0000 O             1 RES     
    9683 H           11.0089    -0.9063     3.3118 H             1 RES     
    9684 C           35.8482    28.6545   -20.5091 C             1 RES     
    9685 H           35.6080    29.6968   -20.5393 H             1 RES     
    9686 H           36.1859    28.3379   -21.4739 H             1 RES     
    9687 H           36.6215    28.4872   -19.7877 H             1 RES     
    9688 C           27.0223    27.2619     1.6071 C             1 RES     
    9689 H           26.2474    27.9902     1.3678 H             1 RES     
    9690 H           26.6471    26.2561     1.4181 H             1 RES     
    9691 C           28.2595    27.5215     0.7275 C             1 RES     
    9692 H           29.0344    26.7932     0.9667 H             1 RES     
    9693 H           28.6347    28.5273     0.9165 H             1 RES     
    9694 C           27.8718    27.3891    -0.7570 C             1 RES     
    9695 H           27.0969    28.1174    -0.9962 H             1 RES     
    9696 H           27.4966    26.3833    -0.9459 H             1 RES     
    9697 C           29.1089    27.6487    -1.6365 C             1 RES     
    9698 H           29.8838    26.9204    -1.3973 H             1 RES     
    9699 H           29.4841    28.6545    -1.4476 H             1 RES     
    9700 C           28.7212    27.5163    -3.1210 C             1 RES     
    9701 H           27.9463    28.2446    -3.3603 H             1 RES     
    9702 H           28.3460    26.5105    -3.3100 H             1 RES     
    9703 C           29.9584    27.7759    -4.0006 C             1 RES     
    9704 H           30.7332    27.0476    -3.7614 H             1 RES     
    9705 H           30.3336    28.7817    -3.8117 H             1 RES     
    9706 C           29.5706    27.6435    -5.4851 C             1 RES     
    9707 H           28.7958    28.3718    -5.7243 H             1 RES     
    9708 H           29.1954    26.6377    -5.6740 H             1 RES     
    9709 C           30.8078    27.9031    -6.3647 C             1 RES     
    9710 H           31.5827    27.1748    -6.1254 H             1 RES     
    9711 H           31.1830    28.9089    -6.1757 H             1 RES     
    9712 C           30.4201    27.7707    -7.8492 C             1 RES     
    9713 H           29.6452    28.4990    -8.0884 H             1 RES     
    9714 H           30.0449    26.7649    -8.0381 H             1 RES     
    9715 C           31.6572    28.0303    -8.7287 C             1 RES     
    9716 H           32.4321    27.3020    -8.4895 H             1 RES     
    9717 H           32.0324    29.0361    -8.5398 H             1 RES     
    9718 C           31.2695    27.8979   -10.2132 C             1 RES     
    9719 H           30.4946    28.6262   -10.4525 H             1 RES     
    9720 H           30.8943    26.8921   -10.4022 H             1 RES     
    9721 C           32.5067    28.1575   -11.0928 C             1 RES     
    9722 H           33.2815    27.4292   -10.8536 H             1 RES     
    9723 H           32.8819    29.1633   -10.9039 H             1 RES     
    9724 C           32.1190    28.0251   -12.5773 C             1 RES     
    9725 H           31.3441    28.7534   -12.8165 H             1 RES     
    9726 H           31.7437    27.0193   -12.7662 H             1 RES     
    9727 C           33.3561    28.2847   -13.4569 C             1 RES     
    9728 H           34.1310    27.5564   -13.2176 H             1 RES     
    9729 H           33.7313    29.2905   -13.2679 H             1 RES     
    9730 C           32.9684    28.1523   -14.9414 C             1 RES     
    9731 H           32.1935    28.8806   -15.1806 H             1 RES     
    9732 H           32.5932    27.1465   -15.1303 H             1 RES     
    9733 C           34.2055    28.4119   -15.8209 C             1 RES     
    9734 H           34.9804    27.6836   -15.5817 H             1 RES     
    9735 H           34.5808    29.4177   -15.6320 H             1 RES     
    9736 C           33.8178    28.2795   -17.3054 C             1 RES     
    9737 H           33.0430    29.0078   -17.5446 H             1 RES     
    9738 H           33.4426    27.2737   -17.4944 H             1 RES     
    9739 C           35.0550    28.5391   -18.1850 C             1 RES     
    9740 H           35.8299    27.8108   -17.9457 H             1 RES     
    9741 H           35.4302    29.5449   -17.9960 H             1 RES     
    9742 C           34.6673    28.4067   -19.6695 C             1 RES     
    9743 H           33.8924    29.1350   -19.9087 H             1 RES     
    9744 H           34.2921    27.4009   -19.8584 H             1 RES     
    9745 O           27.3861    27.3861     3.0000 O             1 RES     
    9746 H           27.6658    26.5223     3.3118 H             1 RES     
    9747 C           46.6507     8.9154   -20.5091 C             1 RES     
    9748 H           46.8241     9.9708   -20.5393 H             1 RES     
    9749 H           46.8429     8.4942   -21.4739 H             1 RES     
    9750 H           47.3025     8.4670   -19.7877 H             1 RES     
    9751 C           37.9568    10.9776     1.6071 C             1 RES     
    9752 H           37.5165    11.9456     1.3678 H             1 RES     
    9753 H           37.2279    10.1896     1.4181 H             1 RES     
    9754 C           39.1999    10.7481     0.7275 C             1 RES     
    9755 H           39.6403     9.7802     0.9667 H             1 RES     
    9756 H           39.9289    11.5362     0.9165 H             1 RES     
    9757 C           38.7910    10.7728    -0.7570 C             1 RES     
    9758 H           38.3506    11.7408    -0.9962 H             1 RES     
    9759 H           38.0620     9.9848    -0.9459 H             1 RES     
    9760 C           40.0341    10.5433    -1.6365 C             1 RES     
    9761 H           40.4744     9.5754    -1.3973 H             1 RES     
    9762 H           40.7630    11.3314    -1.4476 H             1 RES     
    9763 C           39.6251    10.5680    -3.1210 C             1 RES     
    9764 H           39.1847    11.5360    -3.3603 H             1 RES     
    9765 H           38.8962     9.7800    -3.3100 H             1 RES     
    9766 C           40.8682    10.3385    -4.0006 C             1 RES     
    9767 H           41.3086     9.3706    -3.7614 H             1 RES     
    9768 H           41.5972    11.1266    -3.8117 H             1 RES     
    9769 C           40.4593    10.3632    -5.4851 C             1 RES     
    9770 H           40.0189    11.3312    -5.7243 H             1 RES     
    9771 H           39.7303     9.5752    -5.6740 H             1 RES     
    9772 C           41.7024    10.1337    -6.3647 C             1 RES     
    9773 H           42.1427     9.1658    -6.1254 H             1 RES     
    9774 H           42.4313    10.9218    -6.1757 H             1 RES     
    9775 C           41.2934    10.1584    -7.8492 C             1 RES     
    9776 H           40.8530    11.1264    -8.0884 H             1 RES     
    9777 H           40.5644     9.3704    -8.0381 H             1 RES     
    9778 C           42.5365     9.9289    -8.7287 C             1 RES     
    9779 H           42.9769     8.9610    -8.4895 H             1 RES     
    9780 H           43.2654    10.7170    -8.5398 H             1 RES     
    9781 C           42.1275     9.9536   -10.2132 C             1 RES     
    9782 H           41.6872    10.9216   -10.4525 H             1 RES     
    9783 H           41.3986     9.1656   -10.4022 H             1 RES     
    9784 C           43.3706     9.7241   -11.0928 C             1 RES     
    9785 H           43.8110     8.7562   -10.8536 H             1 RES     
    9786 H           44.0996    10.5122   -10.9039 H             1 RES     
    9787 C           42.9617     9.7488   -12.5773 C             1 RES     
    9788 H           42.5213    10.7168   -12.8165 H             1 RES     
    9789 H           42.2327     8.9608   -12.7662 H             1 RES     
    9790 C           44.2048     9.5193   -13.4569 C             1 RES     
    9791 H           44.6451     8.5514   -13.2176 H             1 RES     
    9792 H           44.9337    10.3074   -13.2679 H             1 RES     
    9793 C           43.7958     9.5440   -14.9414 C             1 RES     
    9794 H           43.3554    10.5120   -15.1806 H             1 RES     
    9795 H           43.0668     8.7560   -15.1303 H             1 RES     
    9796 C           45.0389     9.3145   -15.8209 C             1 RES     
    9797 H           45.4793     8.3466   -15.5817 H             1 RES     
    9798 H           45.7679    10.1026   -15.6320 H             1 RES     
    9799 C           44.6299     9.3392   -17.3054 C             1 RES     
    9800 H           44.1896    10.3072   -17.5446 H             1 RES     
    9801 H           43.9010     8.5512   -17.4944 H             1 RES     
    9802 C           45.8730     9.1097   -18.1850 C             1 RES     
    9803 H           46.3134     8.1418   -17.9457 H             1 RES     
    9804 H           46.6020     9.8978   -17.9960 H             1 RES     
    9805 C           45.4641     9.1344   -19.6695 C             1 RES     
    9806 H           45.0237    10.1024   -19.9087 H             1 RES     
    9807 H           44.7351     8.3464   -19.8584 H             1 RES     
    9808 O           38.3406    10.9545     3.0000 O             1 RES     
    9809 H           38.2714    10.0491     3.3118 H             1 RES     
    9810 C           24.8756    20.5249   -20.5091 C             1 RES     
    9811 H           24.9661    21.5906   -20.5393 H             1 RES     
    9812 H           25.1002    20.1200   -21.4739 H             1 RES     
    9813 H           25.5605    20.1288   -19.7877 H             1 RES     
    9814 C           16.0473    21.9020     1.6071 C             1 RES     
    9815 H           15.5327    22.8327     1.3678 H             1 RES     
    9816 H           15.3821    21.0595     1.4181 H             1 RES     
    9817 C           17.3045    21.7703     0.7275 C             1 RES     
    9818 H           17.8191    20.8397     0.9667 H             1 RES     
    9819 H           17.9697    22.6129     0.9165 H             1 RES     
    9820 C           16.8949    21.7630    -0.7570 C             1 RES     
    9821 H           16.3803    22.6936    -0.9962 H             1 RES     
    9822 H           16.2297    20.9204    -0.9459 H             1 RES     
    9823 C           18.1521    21.6313    -1.6365 C             1 RES     
    9824 H           18.6667    20.7006    -1.3973 H             1 RES     
    9825 H           18.8173    22.4738    -1.4476 H             1 RES     
    9826 C           17.7425    21.6239    -3.1210 C             1 RES     
    9827 H           17.2279    22.5546    -3.3603 H             1 RES     
    9828 H           17.0773    20.7814    -3.3100 H             1 RES     
    9829 C           18.9997    21.4922    -4.0006 C             1 RES     
    9830 H           19.5143    20.5616    -3.7614 H             1 RES     
    9831 H           19.6649    22.3348    -3.8117 H             1 RES     
    9832 C           18.5900    21.4849    -5.4851 C             1 RES     
    9833 H           18.0754    22.4155    -5.7243 H             1 RES     
    9834 H           17.9248    20.6423    -5.6740 H             1 RES     
    9835 C           19.8473    21.3532    -6.3647 C             1 RES     
    9836 H           20.3619    20.4226    -6.1254 H             1 RES     
    9837 H           20.5125    22.1957    -6.1757 H             1 RES     
    9838 C           19.4376    21.3459    -7.8492 C             1 RES     
    9839 H           18.9230    22.2765    -8.0884 H             1 RES     
    9840 H           18.7724    20.5033    -8.0381 H             1 RES     
    9841 C           20.6948    21.2141    -8.7287 C             1 RES     
    9842 H           21.2094    20.2835    -8.4895 H             1 RES     
    9843 H           21.3600    22.0567    -8.5398 H             1 RES     
    9844 C           20.2852    21.2068   -10.2132 C             1 RES     
    9845 H           19.7706    22.1374   -10.4525 H             1 RES     
    9846 H           19.6200    20.3643   -10.4022 H             1 RES     
    9847 C           21.5424    21.0751   -11.0928 C             1 RES     
    9848 H           22.0570    20.1445   -10.8536 H             1 RES     
    9849 H           22.2076    21.9177   -10.9039 H             1 RES     
    9850 C           21.1328    21.0678   -12.5773 C             1 RES     
    9851 H           20.6182    21.9984   -12.8165 H             1 RES     
    9852 H           20.4676    20.2252   -12.7662 H             1 RES     
    9853 C           22.3900    20.9360   -13.4569 C             1 RES     
    9854 H           22.9046    20.0054   -13.2176 H             1 RES     
    9855 H           23.0552    21.7786   -13.2679 H             1 RES     
    9856 C           21.9804    20.9287   -14.9414 C             1 RES     
    9857 H           21.4658    21.8593   -15.1806 H             1 RES     
    9858 H           21.3152    20.0862   -15.1303 H             1 RES     
    9859 C           23.2376    20.7970   -15.8209 C             1 RES     
    9860 H           23.7522    19.8664   -15.5817 H             1 RES     
    9861 H           23.9028    21.6396   -15.6320 H             1 RES     
    9862 C           22.8279    20.7897   -17.3054 C             1 RES     
    9863 H           22.3133    21.7203   -17.5446 H             1 RES     
    9864 H           22.1627    19.9471   -17.4944 H             1 RES     
    9865 C           24.0852    20.6580   -18.1850 C             1 RES     
    9866 H           24.5998    19.7273   -17.9457 H             1 RES     
    9867 H           24.7504    21.5005   -17.9960 H             1 RES     
    9868 C           23.6755    20.6506   -19.6695 C             1 RES     
    9869 H           23.1609    21.5813   -19.9087 H             1 RES     
    9870 H           23.0103    19.8081   -19.8584 H             1 RES     
    9871 O           16.4317    21.9089     3.0000 O             1 RES     
    9872 H           16.4334    21.0009     3.3118 H             1 RES     
    9873 C           19.3068    20.0505   -20.5091 C             1 RES     
    9874 H           19.4573    21.1094   -20.5393 H             1 RES     
    9875 H           19.5081    19.6336   -21.4739 H             1 RES     
    9876 H           19.9682    19.6163   -19.7877 H             1 RES     
    9877 C           10.5703    21.9237     1.6071 C             1 RES     
    9878 H           10.1091    22.8819     1.3678 H             1 RES     
    9879 H            9.8586    21.1201     1.4181 H             1 RES     
    9880 C           11.8181    21.7213     0.7275 C             1 RES     
    9881 H           12.2793    20.7631     0.9667 H             1 RES     
    9882 H           12.5298    22.5249     0.9165 H             1 RES     
    9883 C           11.4087    21.7371    -0.7570 C             1 RES     
    9884 H           10.9474    22.6953    -0.9962 H             1 RES     
    9885 H           10.6970    20.9334    -0.9459 H             1 RES     
    9886 C           12.6565    21.5346    -1.6365 C             1 RES     
    9887 H           13.1177    20.5764    -1.3973 H             1 RES     
    9888 H           13.3682    22.3383    -1.4476 H             1 RES     
    9889 C           12.2471    21.5504    -3.1210 C             1 RES     
    9890 H           11.7858    22.5086    -3.3603 H             1 RES     
    9891 H           11.5354    20.7467    -3.3100 H             1 RES     
    9892 C           13.4948    21.3479    -4.0006 C             1 RES     
    9893 H           13.9561    20.3897    -3.7614 H             1 RES     
    9894 H           14.2065    22.1516    -3.8117 H             1 RES     
    9895 C           13.0854    21.3637    -5.4851 C             1 RES     
    9896 H           12.6242    22.3219    -5.7243 H             1 RES     
    9897 H           12.3737    20.5601    -5.6740 H             1 RES     
    9898 C           14.3332    21.1613    -6.3647 C             1 RES     
    9899 H           14.7945    20.2031    -6.1254 H             1 RES     
    9900 H           15.0449    21.9649    -6.1757 H             1 RES     
    9901 C           13.9238    21.1771    -7.8492 C             1 RES     
    9902 H           13.4626    22.1353    -8.0884 H             1 RES     
    9903 H           13.2121    20.3734    -8.0381 H             1 RES     
    9904 C           15.1716    20.9746    -8.7287 C             1 RES     
    9905 H           15.6329    20.0164    -8.4895 H             1 RES     
    9906 H           15.8833    21.7783    -8.5398 H             1 RES     
    9907 C           14.7622    20.9904   -10.2132 C             1 RES     
    9908 H           14.3010    21.9486   -10.4525 H             1 RES     
    9909 H           14.0505    20.1867   -10.4022 H             1 RES     
    9910 C           16.0100    20.7879   -11.0928 C             1 RES     
    9911 H           16.4712    19.8297   -10.8536 H             1 RES     
    9912 H           16.7217    21.5916   -10.9039 H             1 RES     
    9913 C           15.6006    20.8037   -12.5773 C             1 RES     
    9914 H           15.1393    21.7619   -12.8165 H             1 RES     
    9915 H           14.8889    20.0001   -12.7662 H             1 RES     
    9916 C           16.8484    20.6013   -13.4569 C             1 RES     
    9917 H           17.3096    19.6431   -13.2176 H             1 RES     
    9918 H           17.5601    21.4049   -13.2679 H             1 RES     
    9919 C           16.4390    20.6171   -14.9414 C             1 RES     
    9920 H           15.9777    21.5753   -15.1806 H             1 RES     
    9921 H           15.7273    19.8134   -15.1303 H             1 RES     
    9922 C           17.6867    20.4146   -15.8209 C             1 RES     
    9923 H           18.1480    19.4564   -15.5817 H             1 RES     
    9924 H           18.3984    21.2183   -15.6320 H             1 RES     
    9925 C           17.2773    20.4304   -17.3054 C             1 RES     
    9926 H           16.8161    21.3886   -17.5446 H             1 RES     
    9927 H           16.5656    19.6267   -17.4944 H             1 RES     
    9928 C           18.5251    20.2279   -18.1850 C             1 RES     
    9929 H           18.9864    19.2697   -17.9457 H             1 RES     
    9930 H           19.2368    21.0316   -17.9960 H             1 RES     
    9931 C           18.1157    20.2437   -19.6695 C             1 RES     
    9932 H           17.6545    21.2019   -19.9087 H             1 RES     
    9933 H           17.4040    19.4401   -19.8584 H             1 RES     
    9934 O           10.9545    21.9089     3.0000 O             1 RES     
    9935 H           10.9049    21.0023     3.3118 H             1 RES     
    9936 C           30.3475    39.7568   -20.5091 C             1 RES     
    9937 H           30.0891    40.7946   -20.5393 H             1 RES     
    9938 H           30.6907    39.4461   -21.4739 H             1 RES     
    9939 H           31.1236    39.6029   -19.7877 H             1 RES     
    9940 C           21.5473    38.2100     1.6071 C             1 RES     
    9941 H           20.7598    38.9246     1.3678 H             1 RES     
    9942 H           21.1898    37.1978     1.4181 H             1 RES     
    9943 C           22.7798    38.4912     0.7275 C             1 RES     
    9944 H           23.5672    37.7766     0.9667 H             1 RES     
    9945 H           23.1373    39.5034     0.9165 H             1 RES     
    9946 C           22.3944    38.3520    -0.7570 C             1 RES     
    9947 H           21.6069    39.0667    -0.9962 H             1 RES     
    9948 H           22.0368    37.3398    -0.9459 H             1 RES     
    9949 C           23.6268    38.6332    -1.6365 C             1 RES     
    9950 H           24.4143    37.9186    -1.3973 H             1 RES     
    9951 H           23.9844    39.6454    -1.4476 H             1 RES     
    9952 C           23.2415    38.4941    -3.1210 C             1 RES     
    9953 H           22.4540    39.2087    -3.3603 H             1 RES     
    9954 H           22.8839    37.4819    -3.3100 H             1 RES     
    9955 C           24.4739    38.7753    -4.0006 C             1 RES     
    9956 H           25.2614    38.0606    -3.7614 H             1 RES     
    9957 H           24.8315    39.7875    -3.8117 H             1 RES     
    9958 C           24.0886    38.6361    -5.4851 C             1 RES     
    9959 H           23.3011    39.3508    -5.7243 H             1 RES     
    9960 H           23.7310    37.6239    -5.6740 H             1 RES     
    9961 C           25.3210    38.9173    -6.3647 C             1 RES     
    9962 H           26.1085    38.2027    -6.1254 H             1 RES     
    9963 H           25.6786    39.9295    -6.1757 H             1 RES     
    9964 C           24.9357    38.7781    -7.8492 C             1 RES     
    9965 H           24.1482    39.4928    -8.0884 H             1 RES     
    9966 H           24.5781    37.7659    -8.0381 H             1 RES     
    9967 C           26.1681    39.0594    -8.7287 C             1 RES     
    9968 H           26.9556    38.3447    -8.4895 H             1 RES     
    9969 H           26.5257    40.0716    -8.5398 H             1 RES     
    9970 C           25.7827    38.9202   -10.2132 C             1 RES     
    9971 H           24.9953    39.6348   -10.4525 H             1 RES     
    9972 H           25.4252    37.9080   -10.4022 H             1 RES     
    9973 C           27.0152    39.2014   -11.0928 C             1 RES     
    9974 H           27.8027    38.4867   -10.8536 H             1 RES     
    9975 H           27.3727    40.2136   -10.9039 H             1 RES     
    9976 C           26.6298    39.0622   -12.5773 C             1 RES     
    9977 H           25.8423    39.7769   -12.8165 H             1 RES     
    9978 H           26.2723    38.0500   -12.7662 H             1 RES     
    9979 C           27.8623    39.3434   -13.4569 C             1 RES     
    9980 H           28.6498    38.6288   -13.2176 H             1 RES     
    9981 H           28.2198    40.3556   -13.2679 H             1 RES     
    9982 C           27.4769    39.2042   -14.9414 C             1 RES     
    9983 H           26.6894    39.9189   -15.1806 H             1 RES     
    9984 H           27.1194    38.1920   -15.1303 H             1 RES     
    9985 C           28.7093    39.4855   -15.8209 C             1 RES     
    9986 H           29.4968    38.7708   -15.5817 H             1 RES     
    9987 H           29.0669    40.4977   -15.6320 H             1 RES     
    9988 C           28.3240    39.3463   -17.3054 C             1 RES     
    9989 H           27.5365    40.0609   -17.5446 H             1 RES     
    9990 H           27.9664    38.3341   -17.4944 H             1 RES     
    9991 C           29.5564    39.6275   -18.1850 C             1 RES     
    9992 H           30.3439    38.9128   -17.9457 H             1 RES     
    9993 H           29.9140    40.6397   -17.9960 H             1 RES     
    9994 C           29.1711    39.4883   -19.6695 C             1 RES     
    9995 H           28.3836    40.2030   -19.9087 H             1 RES     
    9996 H           28.8135    38.4761   -19.8584 H             1 RES     
    9997 O           21.9089    38.3406     3.0000 O             1 RES     
    9998 H           22.2036    37.4818     3.3118 H             1 RES     
    9999 C           24.9043    42.6221   -20.5091 C             1 RES     
   10000 H           24.9711    43.6896   -20.5393 H             1 RES     
   10001 H           25.1378    42.2224   -21.4739 H             1 RES     
   10002 H           25.5978    42.2413   -19.7877 H             1 RES     
   10003 C           16.0475    43.8024     1.6071 C             1 RES     
   10004 H           15.5124    44.7213     1.3678 H             1 RES     
   10005 H           15.4013    42.9452     1.4181 H             1 RES     
   10006 C           17.3074    43.6987     0.7275 C             1 RES     
   10007 H           17.8426    42.7797     0.9667 H             1 RES     
   10008 H           17.9537    44.5558     0.9165 H             1 RES     
   10009 C           16.8980    43.6822    -0.7570 C             1 RES     
   10010 H           16.3628    44.6012    -0.9962 H             1 RES     
   10011 H           16.2517    42.8251    -0.9459 H             1 RES     
   10012 C           18.1579    43.5785    -1.6365 C             1 RES     
   10013 H           18.6931    42.6596    -1.3973 H             1 RES     
   10014 H           18.8041    44.4357    -1.4476 H             1 RES     
   10015 C           17.7485    43.5621    -3.1210 C             1 RES     
   10016 H           17.2133    44.4810    -3.3603 H             1 RES     
   10017 H           17.1022    42.7049    -3.3100 H             1 RES     
   10018 C           19.0083    43.4584    -4.0006 C             1 RES     
   10019 H           19.5435    42.5395    -3.7614 H             1 RES     
   10020 H           19.6546    44.3156    -3.8117 H             1 RES     
   10021 C           18.5989    43.4420    -5.4851 C             1 RES     
   10022 H           18.0638    44.3609    -5.7243 H             1 RES     
   10023 H           17.9527    42.5848    -5.6740 H             1 RES     
   10024 C           19.8588    43.3383    -6.3647 C             1 RES     
   10025 H           20.3940    42.4193    -6.1254 H             1 RES     
   10026 H           20.5051    44.1954    -6.1757 H             1 RES     
   10027 C           19.4494    43.3218    -7.8492 C             1 RES     
   10028 H           18.9142    44.2408    -8.0884 H             1 RES     
   10029 H           18.8031    42.4647    -8.0381 H             1 RES     
   10030 C           20.7093    43.2181    -8.7287 C             1 RES     
   10031 H           21.2445    42.2992    -8.4895 H             1 RES     
   10032 H           21.3555    44.0753    -8.5398 H             1 RES     
   10033 C           20.2999    43.2017   -10.2132 C             1 RES     
   10034 H           19.7647    44.1206   -10.4525 H             1 RES     
   10035 H           19.6536    42.3445   -10.4022 H             1 RES     
   10036 C           21.5597    43.0980   -11.0928 C             1 RES     
   10037 H           22.0949    42.1790   -10.8536 H             1 RES     
   10038 H           22.2060    43.9551   -10.9039 H             1 RES     
   10039 C           21.1503    43.0815   -12.5773 C             1 RES     
   10040 H           20.6152    44.0005   -12.8165 H             1 RES     
   10041 H           20.5041    42.2244   -12.7662 H             1 RES     
   10042 C           22.4102    42.9778   -13.4569 C             1 RES     
   10043 H           22.9454    42.0589   -13.2176 H             1 RES     
   10044 H           23.0565    43.8350   -13.2679 H             1 RES     
   10045 C           22.0008    42.9614   -14.9414 C             1 RES     
   10046 H           21.4656    43.8803   -15.1806 H             1 RES     
   10047 H           21.3545    42.1042   -15.1303 H             1 RES     
   10048 C           23.2607    42.8577   -15.8209 C             1 RES     
   10049 H           23.7958    41.9388   -15.5817 H             1 RES     
   10050 H           23.9069    43.7149   -15.6320 H             1 RES     
   10051 C           22.8513    42.8413   -17.3054 C             1 RES     
   10052 H           22.3161    43.7602   -17.5446 H             1 RES     
   10053 H           22.2050    41.9841   -17.4944 H             1 RES     
   10054 C           24.1111    42.7376   -18.1850 C             1 RES     
   10055 H           24.6463    41.8186   -17.9457 H             1 RES     
   10056 H           24.7574    43.5947   -17.9960 H             1 RES     
   10057 C           23.7017    42.7211   -19.6695 C             1 RES     
   10058 H           23.1666    43.6401   -19.9087 H             1 RES     
   10059 H           23.0555    41.8640   -19.8584 H             1 RES     
   10060 O           16.4317    43.8178     3.0000 O             1 RES     
   10061 H           16.4536    42.9101     3.3118 H             1 RES     
   10062 C            8.5499     5.1381   -20.5091 C             1 RES     
   10063 H            8.5091     6.2069   -20.5393 H             1 RES     
   10064 H            8.8223     4.7638   -21.4739 H             1 RES     
   10065 H            9.2781     4.8289   -19.7877 H             1 RES     
   10066 C           -0.3806     5.4233     1.6071 C             1 RES     
   10067 H           -1.0054     6.2839     1.3678 H             1 RES     
   10068 H           -0.9376     4.5056     1.4181 H             1 RES     
   10069 C            0.8833     5.4466     0.7275 C             1 RES     
   10070 H            1.5080     4.5860     0.9667 H             1 RES     
   10071 H            1.4402     6.3643     0.9165 H             1 RES     
   10072 C            0.4776     5.3892    -0.7570 C             1 RES     
   10073 H           -0.1471     6.2497    -0.9962 H             1 RES     
   10074 H           -0.0794     4.4715    -0.9459 H             1 RES     
   10075 C            1.7415     5.4125    -1.6365 C             1 RES     
   10076 H            2.3662     4.5519    -1.3973 H             1 RES     
   10077 H            2.2984     6.3302    -1.4476 H             1 RES     
   10078 C            1.3358     5.3550    -3.1210 C             1 RES     
   10079 H            0.7111     6.2156    -3.3603 H             1 RES     
   10080 H            0.7789     4.4373    -3.3100 H             1 RES     
   10081 C            2.5997     5.3783    -4.0006 C             1 RES     
   10082 H            3.2245     4.5177    -3.7614 H             1 RES     
   10083 H            3.1567     6.2960    -3.8117 H             1 RES     
   10084 C            2.1941     5.3208    -5.4851 C             1 RES     
   10085 H            1.5693     6.1814    -5.7243 H             1 RES     
   10086 H            1.6371     4.4031    -5.6740 H             1 RES     
   10087 C            3.4579     5.3441    -6.3647 C             1 RES     
   10088 H            4.0827     4.4836    -6.1254 H             1 RES     
   10089 H            4.0149     6.2618    -6.1757 H             1 RES     
   10090 C            3.0523     5.2867    -7.8492 C             1 RES     
   10091 H            2.4275     6.1473    -8.0884 H             1 RES     
   10092 H            2.4953     4.3690    -8.0381 H             1 RES     
   10093 C            4.3162     5.3100    -8.7287 C             1 RES     
   10094 H            4.9409     4.4494    -8.4895 H             1 RES     
   10095 H            4.8731     6.2277    -8.5398 H             1 RES     
   10096 C            3.9105     5.2525   -10.2132 C             1 RES     
   10097 H            3.2858     6.1131   -10.4525 H             1 RES     
   10098 H            3.3535     4.3348   -10.4022 H             1 RES     
   10099 C            5.1744     5.2758   -11.0928 C             1 RES     
   10100 H            5.7991     4.4153   -10.8536 H             1 RES     
   10101 H            5.7314     6.1935   -10.9039 H             1 RES     
   10102 C            4.7687     5.2184   -12.5773 C             1 RES     
   10103 H            4.1440     6.0789   -12.8165 H             1 RES     
   10104 H            4.2118     4.3007   -12.7662 H             1 RES     
   10105 C            6.0326     5.2417   -13.4569 C             1 RES     
   10106 H            6.6574     4.3811   -13.2176 H             1 RES     
   10107 H            6.5896     6.1594   -13.2679 H             1 RES     
   10108 C            5.6270     5.1842   -14.9414 C             1 RES     
   10109 H            5.0022     6.0448   -15.1806 H             1 RES     
   10110 H            5.0700     4.2665   -15.1303 H             1 RES     
   10111 C            6.8909     5.2075   -15.8209 C             1 RES     
   10112 H            7.5156     4.3469   -15.5817 H             1 RES     
   10113 H            7.4478     6.1252   -15.6320 H             1 RES     
   10114 C            6.4852     5.1501   -17.3054 C             1 RES     
   10115 H            5.8605     6.0106   -17.5446 H             1 RES     
   10116 H            5.9282     4.2323   -17.4944 H             1 RES     
   10117 C            7.7491     5.1733   -18.1850 C             1 RES     
   10118 H            8.3738     4.3128   -17.9457 H             1 RES     
   10119 H            8.3061     6.0911   -17.9960 H             1 RES     
   10120 C            7.3434     5.1159   -19.6695 C             1 RES     
   10121 H            6.7187     5.9765   -19.9087 H             1 RES     
   10122 H            6.7865     4.1982   -19.8584 H             1 RES     
   10123 O            0.0000     5.4772     3.0000 O             1 RES     
   10124 H            0.1129     4.5763     3.3118 H             1 RES     
   10125 C           57.5759    14.2771   -20.5091 C             1 RES     
   10126 H           57.7640    15.3300   -20.5393 H             1 RES     
   10127 H           57.7623    13.8533   -21.4739 H             1 RES     
   10128 H           58.2214    13.8197   -19.7877 H             1 RES     
   10129 C           48.9117    16.4602     1.6071 C             1 RES     
   10130 H           48.4848    17.4342     1.3678 H             1 RES     
   10131 H           48.1718    15.6824     1.4181 H             1 RES     
   10132 C           50.1514    16.2134     0.7275 C             1 RES     
   10133 H           50.5783    15.2394     0.9667 H             1 RES     
   10134 H           50.8913    16.9912     0.9165 H             1 RES     
   10135 C           49.7429    16.2438    -0.7570 C             1 RES     
   10136 H           49.3160    17.2178    -0.9962 H             1 RES     
   10137 H           49.0030    15.4660    -0.9459 H             1 RES     
   10138 C           50.9826    15.9970    -1.6365 C             1 RES     
   10139 H           51.4095    15.0230    -1.3973 H             1 RES     
   10140 H           51.7225    16.7748    -1.4476 H             1 RES     
   10141 C           50.5741    16.0274    -3.1210 C             1 RES     
   10142 H           50.1472    17.0014    -3.3603 H             1 RES     
   10143 H           49.8342    15.2496    -3.3100 H             1 RES     
   10144 C           51.8138    15.7806    -4.0006 C             1 RES     
   10145 H           52.2407    14.8066    -3.7614 H             1 RES     
   10146 H           52.5537    16.5584    -3.8117 H             1 RES     
   10147 C           51.4053    15.8110    -5.4851 C             1 RES     
   10148 H           50.9784    16.7850    -5.7243 H             1 RES     
   10149 H           50.6654    15.0332    -5.6740 H             1 RES     
   10150 C           52.6450    15.5642    -6.3647 C             1 RES     
   10151 H           53.0719    14.5902    -6.1254 H             1 RES     
   10152 H           53.3849    16.3421    -6.1757 H             1 RES     
   10153 C           52.2365    15.5946    -7.8492 C             1 RES     
   10154 H           51.8096    16.5686    -8.0884 H             1 RES     
   10155 H           51.4966    14.8168    -8.0381 H             1 RES     
   10156 C           53.4763    15.3478    -8.7287 C             1 RES     
   10157 H           53.9031    14.3738    -8.4895 H             1 RES     
   10158 H           54.2161    16.1257    -8.5398 H             1 RES     
   10159 C           53.0677    15.3782   -10.2132 C             1 RES     
   10160 H           52.6408    16.3522   -10.4525 H             1 RES     
   10161 H           52.3278    14.6004   -10.4022 H             1 RES     
   10162 C           54.3075    15.1314   -11.0928 C             1 RES     
   10163 H           54.7343    14.1574   -10.8536 H             1 RES     
   10164 H           55.0473    15.9093   -10.9039 H             1 RES     
   10165 C           53.8989    15.1618   -12.5773 C             1 RES     
   10166 H           53.4720    16.1358   -12.8165 H             1 RES     
   10167 H           53.1590    14.3840   -12.7662 H             1 RES     
   10168 C           55.1387    14.9150   -13.4569 C             1 RES     
   10169 H           55.5655    13.9411   -13.2176 H             1 RES     
   10170 H           55.8785    15.6929   -13.2679 H             1 RES     
   10171 C           54.7301    14.9454   -14.9414 C             1 RES     
   10172 H           54.3032    15.9194   -15.1806 H             1 RES     
   10173 H           53.9902    14.1676   -15.1303 H             1 RES     
   10174 C           55.9699    14.6987   -15.8209 C             1 RES     
   10175 H           56.3967    13.7247   -15.5817 H             1 RES     
   10176 H           56.7097    15.4765   -15.6320 H             1 RES     
   10177 C           55.5613    14.7290   -17.3054 C             1 RES     
   10178 H           55.1344    15.7030   -17.5446 H             1 RES     
   10179 H           54.8214    13.9512   -17.4944 H             1 RES     
   10180 C           56.8011    14.4823   -18.1850 C             1 RES     
   10181 H           57.2279    13.5083   -17.9457 H             1 RES     
   10182 H           57.5409    15.2601   -17.9960 H             1 RES     
   10183 C           56.3925    14.5126   -19.6695 C             1 RES     
   10184 H           55.9656    15.4866   -19.9087 H             1 RES     
   10185 H           55.6526    13.7348   -19.8584 H             1 RES     
   10186 O           49.2950    16.4317     3.0000 O             1 RES     
   10187 H           49.2132    15.5274     3.3118 H             1 RES     
   10188 C           35.7683    14.7126   -20.5091 C             1 RES     
   10189 H           35.9011    15.7739   -20.5393 H             1 RES     
   10190 H           35.9765    14.2991   -21.4739 H             1 RES     
   10191 H           36.4368    14.2895   -19.7877 H             1 RES     
   10192 C           27.0018    16.4401     1.6071 C             1 RES     
   10193 H           26.5246    17.3905     1.3678 H             1 RES     
   10194 H           26.3036    15.6247     1.4181 H             1 RES     
   10195 C           28.2528    16.2584     0.7275 C             1 RES     
   10196 H           28.7299    15.3081     0.9667 H             1 RES     
   10197 H           28.9510    17.0739     0.9165 H             1 RES     
   10198 C           27.8432    16.2674    -0.7570 C             1 RES     
   10199 H           27.3660    17.2178    -0.9962 H             1 RES     
   10200 H           27.1449    15.4520    -0.9459 H             1 RES     
   10201 C           29.0941    16.0858    -1.6365 C             1 RES     
   10202 H           29.5713    15.1354    -1.3973 H             1 RES     
   10203 H           29.7924    16.9012    -1.4476 H             1 RES     
   10204 C           28.6845    16.0948    -3.1210 C             1 RES     
   10205 H           28.2074    17.0451    -3.3603 H             1 RES     
   10206 H           27.9863    15.2793    -3.3100 H             1 RES     
   10207 C           29.9355    15.9131    -4.0006 C             1 RES     
   10208 H           30.4127    14.9627    -3.7614 H             1 RES     
   10209 H           30.6337    16.7285    -3.8117 H             1 RES     
   10210 C           29.5259    15.9221    -5.4851 C             1 RES     
   10211 H           29.0488    16.8725    -5.7243 H             1 RES     
   10212 H           28.8277    15.1067    -5.6740 H             1 RES     
   10213 C           30.7769    15.7404    -6.3647 C             1 RES     
   10214 H           31.2540    14.7900    -6.1254 H             1 RES     
   10215 H           31.4751    16.5558    -6.1757 H             1 RES     
   10216 C           30.3673    15.7494    -7.8492 C             1 RES     
   10217 H           29.8901    16.6998    -8.0884 H             1 RES     
   10218 H           29.6691    14.9340    -8.0381 H             1 RES     
   10219 C           31.6183    15.5677    -8.7287 C             1 RES     
   10220 H           32.0954    14.6174    -8.4895 H             1 RES     
   10221 H           32.3165    16.3831    -8.5398 H             1 RES     
   10222 C           31.2086    15.5767   -10.2132 C             1 RES     
   10223 H           30.7315    16.5271   -10.4525 H             1 RES     
   10224 H           30.5104    14.7613   -10.4022 H             1 RES     
   10225 C           32.4596    15.3951   -11.0928 C             1 RES     
   10226 H           32.9368    14.4447   -10.8536 H             1 RES     
   10227 H           33.1578    16.2105   -10.9039 H             1 RES     
   10228 C           32.0500    15.4040   -12.5773 C             1 RES     
   10229 H           31.5729    16.3544   -12.8165 H             1 RES     
   10230 H           31.3518    14.5886   -12.7662 H             1 RES     
   10231 C           33.3010    15.2224   -13.4569 C             1 RES     
   10232 H           33.7781    14.2720   -13.2176 H             1 RES     
   10233 H           33.9992    16.0378   -13.2679 H             1 RES     
   10234 C           32.8914    15.2314   -14.9414 C             1 RES     
   10235 H           32.4143    16.1817   -15.1806 H             1 RES     
   10236 H           32.1932    14.4160   -15.1303 H             1 RES     
   10237 C           34.1424    15.0497   -15.8209 C             1 RES     
   10238 H           34.6195    14.0993   -15.5817 H             1 RES     
   10239 H           34.8406    15.8651   -15.6320 H             1 RES     
   10240 C           33.7328    15.0587   -17.3054 C             1 RES     
   10241 H           33.2556    16.0091   -17.5446 H             1 RES     
   10242 H           33.0345    14.2433   -17.4944 H             1 RES     
   10243 C           34.9837    14.8770   -18.1850 C             1 RES     
   10244 H           35.4609    13.9266   -17.9457 H             1 RES     
   10245 H           35.6820    15.6924   -17.9960 H             1 RES     
   10246 C           34.5741    14.8860   -19.6695 C             1 RES     
   10247 H           34.0970    15.8364   -19.9087 H             1 RES     
   10248 H           33.8759    14.0706   -19.8584 H             1 RES     
   10249 O           27.3861    16.4317     3.0000 O             1 RES     
   10250 H           27.3517    15.5244     3.3118 H             1 RES     
   10251 Compound     0.0000     0.0000     0.0000 Compound      1 RES     
   10252 Compound     0.0000     0.0000     0.0000 Compound      1 RES     
@<TRIPOS>BOND
       1     1100     1101 1
       2     6293     6296 1
       3     2039     2040 1
       4      562      563 1
       5     3840     3843 1
       6      492      489 1
       7     8986     8928 1
       8     7483     7486 1
       9     7888     7891 1
      10     2995     2992 1
      11     4848     4851 1
      12     8164     8167 1
      13     6830     6831 1
      14     1288     1289 1
      15     3125     3134 1
      16     2211     2213 1
      17     5079     5082 1
      18      894      897 1
      19      671      673 1
      20     5048     5051 1
      21     6079     6081 1
      22     7615     7617 1
      23       35       28 1
      24     1181     1178 1
      25     1659     1656 1
      26     1054     1055 1
      27     6691     6693 1
      28     8128     8129 1
      29     3471     3474 1
      30     9070     9073 1
      31     8632     8633 1
      32     5786     5789 1
      33     6339     6340 1
      34     6175     6176 1
      35     8074     8075 1
      36     9586     9587 1
      37     4348     4349 1
      38     4412     4414 1
      39     8167     8109 1
      40     8806     8808 1
      41     9814     9816 1
      42     9310     9312 1
      43     7573     7575 1
      44     2439     2441 1
      45     6968     6971 1
      46     5122     5125 1
      47     1156     1157 1
      48     5012     5015 1
      49     6765     6766 1
      50     4181     4183 1
      51      526      528 1
      52     6777     6778 1
      53     6746     6747 1
      54      842      840 1
      55     1616     1617 1
      56     2251     2252 1
      57     7936     7937 1
      58     6688     6689 1
      59    10102    10103 1
      60     7579     7582 1
      61     2613     2616 1
      62     9820     9823 1
      63      964      965 1
      64     4514     4515 1
      65     9094     9095 1
      66     5061     5064 1
      67     3051     3052 1
      68     3690     3689 1
      69     9193     9196 1
      70      816      818 1
      71     3010     3017 1
      72     5154     5156 1
      73      532      533 1
      74     2547     2549 1
      75     2282     2284 1
      76     4683     4686 1
      77     4266     4269 1
      78     1169     1170 1
      79     2631     2632 1
      80     6818     6819 1
      81     8446     8449 1
      82     8950     8953 1
      83     8662     8665 1
      84     8797     8798 1
      85      480      481 1
      86     8172     8175 1
      87    10069    10066 1
      88     5338     5339 1
      89     6478     6480 1
      90     2592     2594 1
      91     5644     5646 1
      92     5378     5381 1
      93      239      241 1
      94     5978     5981 1
      95     4752     4755 1
      96     5397     5398 1
      97     1492     1495 1
      98     7489     7490 1
      99     8776     8777 1
     100     2027     2029 1
     101     2625     2627 1
     102     2656     2658 1
     103       51       53 1
     104      459      461 1
     105     3190     3193 1
     106     3221     3224 1
     107     3578     3585 1
     108     1521     1520 1
     109     9475     9477 1
     110     9130     9131 1
     111     7714     7717 1
     112     2242     2239 1
     113     2169     2172 1
     114     2804     2807 1
     115     7210     7213 1
     116     4918     4859 1
     117     8413     8414 1
     118     3792     3789 1
     119     1362     1363 1
     120      223      226 1
     121     9571     9573 1
     122     8059     8061 1
     123     7471     7472 1
     124     2132     2135 1
     125     6134     6141 1
     126     1758     1760 1
     127     2943     2945 1
     128     3547     3549 1
     129    10069    10071 1
     130     9061     9063 1
     131     3130     3132 1
     132     5054     5056 1
     133     7762     7765 1
     134     8641     8643 1
     135    10153    10155 1
     136     9649     9651 1
     137      813      815 1
     138     6789     6790 1
     139     1729     1730 1
     140      872      873 1
     141     7942     7943 1
     142     3691     3689 1
     143     6242     6243 1
     144      683      684 1
     145     5731     5732 1
     146     6598     6600 1
     147     7693     7695 1
     148     6120     6122 1
     149     4435     4438 1
     150     4490     4492 1
     151     5965     5974 1
     152      677      674 1
     153     4435     4437 1
     154     1029     1022 1
     155     2072     2073 1
     156     4245     4246 1
     157     2158     2159 1
     158     8473     8476 1
     159     2474     2477 1
     160     4381     4383 1
     161     5042     5045 1
     162     5397     5410 1
     163     6048     6051 1
     164      619      616 1
     165     5725     5728 1
     166     6085     6088 1
     167     1060     1062 1
     168     6112     6115 1
     169     6262     6265 1
     170     4776     4717 1
     171     6638     6641 1
     172     3848     3849 1
     173     7012     7009 1
     174     8035     8038 1
     175     2857     2862 1
     176     5118     5121 1
     177     5535     5538 1
     178     1749     1751 1
     179      804      806 1
     180     8083     8086 1
     181     9277     9280 1
     182     1421     1426 1
     183     6885     6887 1
     184     9454     9456 1
     185     2764     2766 1
     186      523      526 1
     187     9373     9375 1
     188     2644     2646 1
     189     9655     9658 1
     190     9958     9960 1
     191     1909     1912 1
     192     9688     9690 1
     193    10192    10194 1
     194     2013     2015 1
     195     2857     2859 1
     196     9184     9186 1
     197     5752     5754 1
     198     2127     2130 1
     199     4120     4123 1
     200     3761     3763 1
     201     7753     7755 1
     202     1906     1903 1
     203     7042     7045 1
     204     9810     9813 1
     205     8298     8301 1
     206     4688     4691 1
     207     5468     5471 1
     208    10237    10240 1
     209     5659     5660 1
     210     1150     1151 1
     211     4737     4739 1
     212     3644     3645 1
     213     6740     6741 1
     214     4558     4559 1
     215     2786     2789 1
     216     6169     6170 1
     217     4465     4466 1
     218     3268     3269 1
     219     5804     5801 1
     220     6456     6457 1
     221     7120     7121 1
     222     2402     2404 1
     223     6487     6488 1
     224     9205     9202 1
     225     3160     3161 1
     226     7801     7802 1
     227     7237     7239 1
     228     6546     6549 1
     229      915      916 1
     230     8827     8828 1
     231     9835     9836 1
     232     2150     2151 1
     233     4876     4879 1
     234     1402     1404 1
     235     7675     7678 1
     236     2544     2546 1
     237     2119     2118 1
     238      440      442 1
     239      102      100 1
     240     9343     9346 1
     241     4807     4808 1
     242    10120    10121 1
     243     4532     4533 1
     244     8974     8975 1
     245     3436     3437 1
     246     6332     6329 1
     247     4135     4140 1
     248     9298     9300 1
     249     3354     3357 1
     250     3057     3059 1
     251     2868     2870 1
     252     8452     8454 1
     253     3088     3090 1
     254     9964     9966 1
     255     8235     8236 1
     256     9322     9324 1
     257      550      552 1
     258     9747     9748 1
     259     2344     2346 1
     260     8818     8820 1
     261     8314     8316 1
     262     3254     3256 1
     263     3570     3572 1
     264     8590     8593 1
     265     9598     9601 1
     266     3662     3664 1
     267     5132     5136 1
     268     6411     6415 1
     269      233      234 1
     270     2193     2194 1
     271     2743     2744 1
     272     5160     5161 1
     273     6684     6685 1
     274     8188     8189 1
     275     9469     9471 1
     276     6830     6833 1
     277     4535     4538 1
     278     6363     6364 1
     279     4659     4660 1
     280     2372     2374 1
     281     9936     9939 1
     282     3692     3689 1
     283     7975     7977 1
     284     3305     3307 1
     285     5819     5820 1
     286       63       60 1
     287     4940     4941 1
     288     2767     2768 1
     289     5402     5403 1
     290     7708     7709 1
     291     3410     3413 1
     292     9148     9151 1
     293     8968     8965 1
     294     2175     2172 1
     295     2242     2244 1
     296     2761     2763 1
     297     4952     4955 1
     298     9667     9669 1
     299     9163     9165 1
     300     3267     3280 1
     301    10171    10173 1
     302     9274     9276 1
     303     8770     8772 1
     304     5847     5849 1
     305     9226     9228 1
     306     9280     9283 1
     307     8407     8408 1
     308     9919     9920 1
     309     1356     1357 1
     310     1390     1392 1
     311     5435     5438 1
     312     1103     1104 1
     313     9076     9078 1
     314     4496     4498 1
     315     6200     6202 1
     316     1568     1570 1
     317     2251     2248 1
     318     3272     3274 1
     319     7945     7947 1
     320     1239     1236 1
     321     8485     8428 1
     322     6786     6788 1
     323     5876     5878 1
     324     4656     4659 1
     325     1989     2002 1
     326     9259     9260 1
     327      562      564 1
     328     6592     6595 1
     329     1952     1955 1
     330     2456     2459 1
     331     9316     9317 1
     332     6526     6529 1
     333     5097     5100 1
     334     1788     1789 1
     335     4277     4278 1
     336     9883     9885 1
     337      348      347 1
     338     8875     8877 1
     339     9379     9381 1
     340     9529     9530 1
     341    10033    10034 1
     342     9025     9026 1
     343     4714     4717 1
     344     6175     6178 1
     345       22       20 1
     346     7756     7759 1
     347     3595     3596 1
     348     5555     5560 1
     349     6338     6279 1
     350     6940     6941 1
     351     8962     8963 1
     352     9970     9971 1
     353     7168     7170 1
     354     1430     1431 1
     355     3091     3093 1
     356     7171     7172 1
     357     1054     1056 1
     358     3094     3095 1
     359     8458     8459 1
     360     9253     9256 1
     361     8749     8752 1
     362     4834     4829 1
     363     5003     5006 1
     364     2008     2012 1
     365     2860     2863 1
     366     1628     1625 1
     367     1190     1191 1
     368     1866     1869 1
     369     2445     2504 1
     370      909      911 1
     371     8917     8920 1
     372     8449     8452 1
     373     8389     8390 1
     374     4073     4076 1
     375     5271     5268 1
     376     4647     4649 1
     377     4595     4592 1
     378     9442     9439 1
     379      202      204 1
     380     6746     6748 1
     381     6777     6779 1
     382     9118     9117 1
     383     4209     4210 1
     384     7831     7833 1
     385     7150     7152 1
     386     5398     5400 1
     387     6351     6354 1
     388     4922     4925 1
     389     9673     9675 1
     390     2566     2567 1
     391      532      534 1
     392     8361     8364 1
     393     6707     6708 1
     394     1248     1249 1
     395     8338     8341 1
     396     8842     8845 1
     397     6254     6255 1
     398     3106     3107 1
     399     7857     7860 1
     400     6710     6713 1
     401     3323     3326 1
     402     2529     2532 1
     403     2700     2699 1
     404     3172     3174 1
     405     7924     7927 1
     406     9436     9439 1
     407     9421     9422 1
     408     7630     7631 1
     409     3698     3701 1
     410     7786     7789 1
     411     7360     7361 1
     412     1773     1770 1
     413     5097     5094 1
     414      173      232 1
     415     7153     7155 1
     416     7834     7836 1
     417     5416     5420 1
     418     3844     3846 1
     419     4018     4019 1
     420      883      884 1
     421     7290     7291 1
     422     9457     9460 1
     423     1084     1025 1
     424     1486     1483 1
     425     2888     2891 1
     426      227      226 1
     427     4302     4305 1
     428     6006     6009 1
     429     4520     4523 1
     430     8920     8923 1
     431     3529     3526 1
     432      674      676 1
     433     1518     1517 1
     434     3030     3032 1
     435     4692     4695 1
     436     6983     6985 1
     437     5997     6000 1
     438     1770     1771 1
     439     9928     9930 1
     440     8416     8418 1
     441     7912     7914 1
     442     1602     1601 1
     443     7486     7487 1
     444     6604     6605 1
     445     7420     7421 1
     446     8203     8204 1
     447      860      858 1
     448     8707     8708 1
     449     6418     6420 1
     450     6910     6911 1
     451     2486     2488 1
     452     2239     2240 1
     453     9406     9408 1
     454      764      766 1
     455     3480     3483 1
     456     5708     5711 1
     457      458      457 1
     458     7498     7500 1
     459     2278     2280 1
     460     2610     2612 1
     461     9289     9291 1
     462     6955     6956 1
     463     4885     4888 1
     464     4366     4369 1
     465      356      357 1
     466     7018     7019 1
     467     1553     1554 1
     468     8914     8917 1
     469     5716     5719 1
     470     7978     7980 1
     471     3308     3310 1
     472      888      891 1
     473     5981     5983 1
     474    10075    10078 1
     475     8908     8910 1
     476     9412     9414 1
     477     2266     2269 1
     478     1631     1634 1
     479     6508     6510 1
     480     6233     6235 1
     481     4825     4828 1
     482     4408     4411 1
     483       57       59 1
     484     9067     9069 1
     485     9364     9306 1
     486     2214     2216 1
     487     3868     3867 1
     488     4564     4565 1
     489     6142     6143 1
     490     8827     8829 1
     491     2150     2152 1
     492     9835     9837 1
     493     7594     7596 1
     494      190      192 1
     495     3523     3526 1
     496     6758     6761 1
     497     6378     6380 1
     498     8938     8940 1
     499     8434     8436 1
     500     3314     3316 1
     501     2286     2288 1
     502     1193     1195 1
     503     4662     4664 1
     504     5686     5688 1
     505     1208     1210 1
     506     1239     1241 1
     507     5514     5516 1
     508      402      405 1
     509     3341     3343 1
     510     4711     4713 1
     511     4830     4829 1
     512     6743     6746 1
     513     3456     3457 1
     514     4804     4805 1
     515     5705     5706 1
     516     8509     8512 1
     517     9517     9520 1
     518     1689     1686 1
     519     5311     5312 1
     520     1465     1466 1
     521     4399     4402 1
     522     7498     7501 1
     523     6112     6113 1
     524     7204     7207 1
     525    10096    10097 1
     526     2335     2336 1
     527     7297     7298 1
     528     7405     7408 1
     529     4288     4289 1
     530     4508     4509 1
     531     7846     7849 1
     532     2199     2201 1
     533     3425     3427 1
     534     6320     6322 1
     535     6538     6540 1
     536     6079     6082 1
     537     6194     6196 1
     538     6955     6957 1
     539      671      674 1
     540      103      106 1
     541     2952     2955 1
     542    10195    10197 1
     543     5755     5757 1
     544     3369     3371 1
     545     3338     3340 1
     546     4051     4054 1
     547     2860     2862 1
     548     9691     9693 1
     549     9187     9189 1
     550     1329     1326 1
     551      454      456 1
     552      465      468 1
     553     1877     1871 1
     554     9403     9406 1
     555      761      764 1
     556     2273     2282 1
     557     8122     8123 1
     558     1943     1946 1
     559     4780     4783 1
     560     4891     4888 1
     561     3505     3508 1
     562     1136     1133 1
     563     6740     6742 1
     564     3644     3646 1
     565     4558     4560 1
     566      251      254 1
     567     6418     6421 1
     568      196      198 1
     569     1341     1343 1
     570     8275     8276 1
     571     1077     1075 1
     572     4976     4978 1
     573     1804     1807 1
     574      332      335 1
     575     4740     4743 1
     576     6774     6777 1
     577     1178     1179 1
     578     4700     4701 1
     579     4239     4241 1
     580     6085     6086 1
     581      236      238 1
     582     5686     5681 1
     583     5163     5165 1
     584     1387     1384 1
     585     4967     4969 1
     586     6311     6313 1
     587     5344     5285 1
     588     6837     6836 1
     589     1698     1699 1
     590     1338     1341 1
     591     1879     1880 1
     592     4128     4119 1
     593     7384     7385 1
     594      320      321 1
     595     6432     6433 1
     596     2662     2665 1
     597     3181     3184 1
     598     4416     4418 1
     599     5804     5806 1
     600     1807     1810 1
     601     9709     9711 1
     602     7822     7825 1
     603     9205     9207 1
     604     8995     8997 1
     605     3949     3950 1
     606     9119     9117 1
     607     1712     1710 1
     608     5181     5178 1
     609     1628     1629 1
     610     1094     1091 1
     611     6450     6451 1
     612     4262     4263 1
     613     4647     4650 1
     614     6906     6847 1
     615     3656     3657 1
     616     3214     3155 1
     617     2278     2281 1
     618     1912     1915 1
     619     6647     6650 1
     620     1025     1026 1
     621     2613     2614 1
     622      428      430 1
     623     9094     9097 1
     624     4514     4517 1
     625     7288     7289 1
     626     3344     3346 1
     627     9043     9046 1
     628     6070     6072 1
     629     4079     4080 1
     630     6852     6853 1
     631     4598     4599 1
     632     3060     3061 1
     633     6589     6591 1
     634        2        3 1
     635     1662     1663 1
     636     1822     1823 1
     637     5308     5309 1
     638     3547     3550 1
     639     8086     8087 1
     640     5064     5065 1
     641     3130     3133 1
     642     5054     5057 1
     643     7672     7674 1
     644     6514     6517 1
     645     9340     9343 1
     646     1990     1989 1
     647      281      284 1
     648     1422     1425 1
     649     1033     1034 1
     650      177      170 1
     651     4987     4992 1
     652     4864     4867 1
     653     5641     5642 1
     654     3070     3071 1
     655     6160     6161 1
     656     2269     2272 1
     657    10234    10235 1
     658     5221     5222 1
     659     7939     7940 1
     660     4586     4587 1
     661     8550     8551 1
     662     6975     6976 1
     663      272      273 1
     664     4045     4046 1
     665     5338     5340 1
     666    10120    10062 1
     667     8374     8376 1
     668      825      827 1
     669     3236     3239 1
     670     9886     9888 1
     671     3679     3677 1
     672     7693     7696 1
     673     6598     6601 1
     674     6120     6123 1
     675     7648     7649 1
     676     2937     2934 1
     677     3848     3835 1
     678     6163     6166 1
     679     8536     8539 1
     680     1124     1126 1
     681     4984     4971 1
     682     5441     5444 1
     683     6042     6043 1
     684     1718     1719 1
     685      665      666 1
     686     3076     3079 1
     687    10246    10188 1
     688     1504     1506 1
     689     2604     2606 1
     690     4777     4779 1
     691     8410     8411 1
     692       84       86 1
     693     5900     5902 1
     694     9180     9182 1
     695     9922     9923 1
     696     1576     1578 1
     697     5540     5543 1
     698     6249     6250 1
     699     7393     7395 1
     700     4714     4721 1
     701     2351     2350 1
     702     1045     1046 1
     703     9490     9492 1
     704     5329     5331 1
     705     2764     2767 1
     706     6885     6888 1
     707     7738     7741 1
     708     5200     5203 1
     709     8424     8427 1
     710     8563     8564 1
     711      634      636 1
     712     3381     3383 1
     713     4363     4365 1
     714     1211     1213 1
     715     1217     1219 1
     716     9703     9705 1
     717     3141     3143 1
     718     8479     8481 1
     719     8983     8985 1
     720     7918     7861 1
     721     2480     2482 1
     722     3752     3755 1
     723     4496     4499 1
     724     7645     7648 1
     725     1408     1411 1
     726     7064     7065 1
     727     9775     9777 1
     728      504      506 1
     729     3961     3964 1
     730     2807     2808 1
     731     1266     1267 1
     732     7717     7718 1
     733     4906     4907 1
     734     7213     7214 1
     735     6641     6642 1
     736     8263     8265 1
     737    10225    10226 1
     738     2172     2173 1
     739     2631     2634 1
     740      304      308 1
     741     9778     9780 1
     742     8266     8268 1
     743     3489     3491 1
     744    10144    10147 1
     745     9640     9643 1
     746     9136     9139 1
     747     2214     2211 1
     748     1964     1961 1
     749       84       81 1
     750     9886     9883 1
     751      993      991 1
     752     3840     3835 1
     753     3783     3786 1
     754     3428     3432 1
     755     2622     2623 1
     756       48       49 1
     757     4575     4576 1
     758     4931     4933 1
     759     4021     4023 1
     760     2208     2210 1
     761     9466     9468 1
     762      378      380 1
     763     2558     2561 1
     764     1587     1589 1
     765      982      984 1
     766     5544     5546 1
     767     5082     5084 1
     768     2120     2118 1
     769     2027     2024 1
     770     4257     4259 1
     771     5051     5053 1
     772     7951     7954 1
     773     8290     8293 1
     774     1564     1567 1
     775     8314     8317 1
     776     8818     8821 1
     777     2344     2347 1
     778     9322     9325 1
     779     3254     3257 1
     780     1601     1598 1
     781     2879     2882 1
     782     7570     7573 1
     783     2138     2136 1
     784    10051    10054 1
     785     1674     1676 1
     786     3610     3611 1
     787     6662     6663 1
     788    10231    10232 1
     789     8719     8720 1
     790     4998     4999 1
     791    10237    10239 1
     792     4314     4316 1
     793     2489     2491 1
     794     1970     1972 1
     795     2257     2259 1
     796     9721     9723 1
     797     4112     4114 1
     798     8209     8211 1
     799     6577     6579 1
     800     8176     8178 1
     801      704      706 1
     802     9475     9478 1
     803     3066     3069 1
     804     3418     3409 1
     805     6928     6931 1
     806      159      164 1
     807     8302     8303 1
     808     2363     2364 1
     809     7088     7089 1
     810     5109     5110 1
     811     6221     6222 1
     812      353      354 1
     813     1550     1551 1
     814     2719     2723 1
     815     7015     7016 1
     816     6817     6822 1
     817     5613     5614 1
     818     3824     3822 1
     819     3821     3819 1
     820     2079     2080 1
     821     3477     3478 1
     822     6565     6566 1
     823     6094     6097 1
     824     4221     4222 1
     825     4408     4409 1
     826     4825     4826 1
     827     3013     3014 1
     828     6762     6764 1
     829     2566     2569 1
     830     1393     1396 1
     831     7885     7886 1
     832     6641     6643 1
     833      272      269 1
     834     9454     9457 1
     835     3758     3761 1
     836     5532     5535 1
     837    10078    10081 1
     838     1990     1992 1
     839     2659     2660 1
     840     9610     9611 1
     841     9106     9107 1
     842     9331     9332 1
     843      500      498 1
     844     1559     1560 1
     845     2269     2271 1
     846     6142     6144 1
     847      139      140 1
     848     9769     9772 1
     849     8257     8260 1
     850     8761     8764 1
     851     4564     4566 1
     852     8278     8281 1
     853     9790     9793 1
     854     6157     6160 1
     855      405      408 1
     856     2495     2492 1
     857    10072    10074 1
     858       97       99 1
     859     3384     3387 1
     860     9670     9671 1
     861     8662     8663 1
     862     3986     3987 1
     863     3175     3178 1
     864     7816     7819 1
     865     1946     1947 1
     866     6671     6672 1
     867     7687     7688 1
     868     6592     6593 1
     869     1677     1678 1
     870     3924     3922 1
     871     1519     1517 1
     872     2801     2804 1
     873     9223     9226 1
     874     9361     9362 1
     875     4949     4951 1
     876     1199     1201 1
     877     7723     7725 1
     878     4320     4322 1
     879     4351     4353 1
     880     5230     5232 1
     881     7227     7228 1
     882     1465     1467 1
     883     5311     5313 1
     884     1952     1949 1
     885     7444     7446 1
     886     1353     1350 1
     887     5484     5486 1
     888     2846     2841 1
     889     3390     3391 1
     890     4103     4104 1
     891     1930     1931 1
     892     9739     9741 1
     893     3984     3982 1
     894     7372     7373 1
     895      716      719 1
     896    10174    10176 1
     897     8383     8385 1
     898     9166     9168 1
     899     2743     2745 1
     900     9175     9172 1
     901     7525     7528 1
     902     9385     9388 1
     903     5393     5395 1
     904     6187     6189 1
     905     7303     7305 1
     906     7126     7128 1
     907       78       81 1
     908      427      436 1
     909     5279     5281 1
     910     1284     1287 1
     911     4546     4549 1
     912     9445     9446 1
     913      187      188 1
     914     7660     7663 1
     915      474      475 1
     916     1078     1079 1
     917     3130     3131 1
     918     4810     4811 1
     919     7353     7355 1
     920     9271     9273 1
     921     8767     8769 1
     922     9243     9246 1
     923     8739     8742 1
     924     7876     7878 1
     925     4387     4384 1
     926     8716     8718 1
     927     5465     5467 1
     928     4067     4069 1
     929     8884     8887 1
     930     4987     4989 1
     931     3402     3404 1
     932     6613     6615 1
     933     8635     8637 1
     934     8131     8133 1
     935     4138     4142 1
     936      952      953 1
     937     2323     2325 1
     938     7339     7341 1
     939     5375     5377 1
     940     1498     1500 1
     941     5711     5712 1
     942    10054    10057 1
     943     9775     9778 1
     944     8263     8266 1
     945     8542     8545 1
     946     3242     3244 1
     947     7852     7854 1
     948      492      493 1
     949      304      305 1
     950     6027     6030 1
     951     5665     5666 1
     952     6801     6804 1
     953     1819     1820 1
     954     6250     6251 1
     955     1937     1940 1
     956     5233     5236 1
     957     7507     7510 1
     958     5061     5062 1
     959      547      548 1
     960     3492     3493 1
     961     7867     7869 1
     962     8800     8801 1
     963     9304     9305 1
     964     9346     9348 1
     965     3499     3501 1
     966     1393     1390 1
     967     5780     5783 1
     968     3973     3976 1
     969     4320     4323 1
     970     2161     2162 1
     971     9700     9702 1
     972     1976     1977 1
     973     3320     3321 1
     974     6922     6923 1
     975     1891     1892 1
     976     9319     9320 1
     977     2616     2617 1
     978     2647     2648 1
     979     6680     6681 1
     980     6702     6703 1
     981     9823     9824 1
     982     1236     1237 1
     983     7414     7415 1
     984     5786     5787 1
     985     3616     3618 1
     986     9973     9975 1
     987     3958     3960 1
     988     8965     8967 1
     989     1637     1639 1
     990     2462     2464 1
     991     5677     5680 1
     992     3994     3993 1
     993     5824     5826 1
     994     1882     1879 1
     995      942      883 1
     996     8518     8519 1
     997     6702     6709 1
     998     8014     8015 1
     999     9684     9687 1
    1000     3414     3415 1
    1001       72       73 1
    1002     7333     7334 1
    1003     2952     2953 1
    1004     5190     5191 1
    1005     5001     5002 1
    1006     2718     2719 1
    1007     4128     4130 1
    1008      707      710 1
    1009     7435     7436 1
    1010     1417     1414 1
    1011     6934     6935 1
    1012     9124     9125 1
    1013     4717     4711 1
    1014     3764     3765 1
    1015     8020     8022 1
    1016    10057     9999 1
    1017     8524     8526 1
    1018     7479     7480 1
    1019     1004     1005 1
    1020     4577     4580 1
    1021     1323     1325 1
    1022     8545     8487 1
    1023     1994     1989 1
    1024     8881     8882 1
    1025     9385     9386 1
    1026     2610     2613 1
    1027     2019     2016 1
    1028     1695     1692 1
    1029      746      749 1
    1030      831      834 1
    1031     2921     2924 1
    1032      170      171 1
    1033     4348     4351 1
    1034     4813     4815 1
    1035     7522     7524 1
    1036     5332     5334 1
    1037     2311     2313 1
    1038     1118     1121 1
    1039     5363     5365 1
    1040     3465     3467 1
    1041     5789     5792 1
    1042     2547     2550 1
    1043     9397     9399 1
    1044     5589     5591 1
    1045     5366     5369 1
    1046     6468     6470 1
    1047      133      135 1
    1048     5496     5499 1
    1049     2570     2573 1
    1050     4946     4949 1
    1051     8908     8909 1
    1052     5264     5265 1
    1053     9412     9413 1
    1054     1538     1541 1
    1055      417      414 1
    1056     1272     1275 1
    1057     7462     7465 1
    1058     2526     2529 1
    1059      964      967 1
    1060     5106     5108 1
    1061     1810     1812 1
    1062     1779     1781 1
    1063     3193     3195 1
    1064     8172     8174 1
    1065     3224     3226 1
    1066     9679     9676 1
    1067     7267     7268 1
    1068     7771     7772 1
    1069     8938     8941 1
    1070     8434     8437 1
    1071     3039     3042 1
    1072     2286     2289 1
    1073     4662     4665 1
    1074     4027     4030 1
    1075     4628     4629 1
    1076     6913     6914 1
    1077     6882     6883 1
    1078     3314     3317 1
    1079     7618     7621 1
    1080     2124     2125 1
    1081    10249    10192 1
    1082     9745     9688 1
    1083     9382     9385 1
    1084     2350     2347 1
    1085     8878     8881 1
    1086     9769     9766 1
    1087     3894     3895 1
    1088     7642     7643 1
    1089     7273     7276 1
    1090      298      301 1
    1091     2865     2866 1
    1092     5450     5451 1
    1093     6879     6880 1
    1094     4864     4865 1
    1095     8197     8194 1
    1096     6676     6677 1
    1097     3771     3770 1
    1098      159      156 1
    1099     5140     5147 1
    1100     9313     9315 1
    1101     2885     2887 1
    1102     5076     5079 1
    1103     3712     3716 1
    1104     2511     2514 1
    1105     4592     4593 1
    1106     4916     4917 1
    1107     3532     3533 1
    1108     6774     6775 1
    1109     5039     5040 1
    1110     8038     8041 1
    1111     5417     5421 1
    1112     9478     9481 1
    1113     4438     4441 1
    1114     1874     1876 1
    1115     2369     2371 1
    1116     3578     3580 1
    1117     9526     9529 1
    1118    10030    10033 1
    1119      877      883 1
    1120     2822     2819 1
    1121     1996     1994 1
    1122     5632     5634 1
    1123     5450     5453 1
    1124     4021     4024 1
    1125     5601     5603 1
    1126      315      374 1
    1127     2434     2435 1
    1128     5682     5681 1
    1129     1579     1584 1
    1130     6549     6551 1
    1131     8101     8103 1
    1132     2442     2444 1
    1133     9613     9615 1
    1134     6740     6743 1
    1135     2976     2979 1
    1136     4558     4561 1
    1137     5335     5337 1
    1138      730      733 1
    1139     6813     6814 1
    1140     3870     3867 1
    1141     7312     7313 1
    1142     3103     3105 1
    1143     7180     7182 1
    1144     2541     2542 1
    1145     9331     9333 1
    1146     9106     9108 1
    1147     1559     1561 1
    1148     2659     2661 1
    1149     8323     8325 1
    1150     3656     3653 1
    1151      242      239 1
    1152      139      141 1
    1153     2369     2372 1
    1154     7024     7026 1
    1155     7942     7944 1
    1156     1729     1731 1
    1157     4209     4206 1
    1158      683      685 1
    1159     5731     5733 1
    1160     1448     1450 1
    1161      462      464 1
    1162      547      550 1
    1163     5604     5607 1
    1164     7492     7495 1
    1165     4795     4798 1
    1166     7058     7059 1
    1167     7027     7028 1
    1168     4845     4846 1
    1169      858      853 1
    1170     7290     7293 1
    1171     2807     2810 1
    1172     5441     5442 1
    1173     6076     6077 1
    1174     2949     2950 1
    1175     3517     3518 1
    1176     2692     2693 1
    1177     5024     5025 1
    1178     8482     8424 1
    1179     1686     1683 1
    1180     2999     3000 1
    1181     5100     5101 1
    1182     3354     3355 1
    1183      312      315 1
    1184     1564     1565 1
    1185     5925     5926 1
    1186     9514     9515 1
    1187    10018    10019 1
    1188     8506     8507 1
    1189     9010     9011 1
    1190     8487     8488 1
    1191     9999    10000 1
    1192     3205     3208 1
    1193     4891     4893 1
    1194     4416     4419 1
    1195     9709     9712 1
    1196     6626     6628 1
    1197     2581     2583 1
    1198     5804     5807 1
    1199     6505     6508 1
    1200     9205     9208 1
    1201     3384     3386 1
    1202     9751     9753 1
    1203     8239     8241 1
    1204      565      567 1
    1205     1970     1967 1
    1206     3814     3813 1
    1207     8179     8181 1
    1208     6580     6582 1
    1209     4856     4857 1
    1210      707      709 1
    1211     5870     5871 1
    1212     8032     8035 1
    1213     9544     9547 1
    1214     6688     6675 1
    1215     7891     7893 1
    1216     4538     4540 1
    1217     8620     8622 1
    1218      834      835 1
    1219     1489     1486 1
    1220     1338     1340 1
    1221     8668     8670 1
    1222    10180    10182 1
    1223     9172     9174 1
    1224     3616     3613 1
    1225      474      476 1
    1226     1650     1653 1
    1227     7731     7732 1
    1228     6221     6223 1
    1229      353      355 1
    1230     1550     1552 1
    1231     7015     7017 1
    1232     2320     2322 1
    1233     1440     1444 1
    1234     9361     9364 1
    1235     2813     2815 1
    1236     4711     4712 1
    1237     9535     9538 1
    1238     4632     4634 1
    1239     2434     2436 1
    1240     5879     5881 1
    1241     5984     5986 1
    1242     4758     4760 1
    1243     5453     5454 1
    1244      517      518 1
    1245     4039     4042 1
    1246     2825     2827 1
    1247     6623     6625 1
    1248      659      661 1
    1249     6067     6069 1
    1250     6036     6038 1
    1251     1437     1439 1
    1252     4404     4406 1
    1253     4332     4334 1
    1254     3878     3876 1
    1255     6644     6645 1
    1256     3042     3043 1
    1257     7933     7934 1
    1258     4580     4581 1
    1259     1888     1889 1
    1260     4288     4295 1
    1261     8941     8942 1
    1262     4030     4031 1
    1263     7204     7205 1
    1264     2523     2524 1
    1265     3873     3875 1
    1266     1630     1628 1
    1267     9016     9017 1
    1268     5332     5329 1
    1269     9079     9080 1
    1270     4499     4500 1
    1271      184      181 1
    1272     6429     6430 1
    1273     7033     7034 1
    1274     6844     6845 1
    1275     3157     3159 1
    1276     3402     3405 1
    1277     3329     3332 1
    1278     4804     4807 1
    1279     3456     3459 1
    1280      720      721 1
    1281     1269     1271 1
    1282     2248     2250 1
    1283     6100     6102 1
    1284     3876     3879 1
    1285     4909     4911 1
    1286     3147     3144 1
    1287     6284     6286 1
    1288      773      774 1
    1289     1275     1277 1
    1290     5490     5492 1
    1291      483      485 1
    1292     9754     9756 1
    1293     8242     8244 1
    1294     1227     1229 1
    1295     5282     5284 1
    1296     9328     9331 1
    1297     8320     8323 1
    1298     1848     1850 1
    1299     7294     7296 1
    1300     4474     4476 1
    1301     1011     1016 1
    1302       69       72 1
    1303      516      457 1
    1304     5558     5562 1
    1305     7339     7336 1
    1306     4444     4446 1
    1307     9936     9938 1
    1308     7738     7739 1
    1309     4934     4937 1
    1310      819      821 1
    1311     7360     7362 1
    1312     4595     4598 1
    1313     1078     1080 1
    1314     7726     7727 1
    1315     1906     1907 1
    1316    10246    10247 1
    1317     4354     4355 1
    1318      151      148 1
    1319     9742     9743 1
    1320     9223     9224 1
    1321     9727     9728 1
    1322      242      244 1
    1323     8215     8216 1
    1324     8311     8312 1
    1325     7807     7808 1
    1326     8815     8816 1
    1327     1877     1878 1
    1328     7097     7098 1
    1329     7369     7372 1
    1330      622      623 1
    1331     6943     6945 1
    1332     5085     5088 1
    1333     5864     5867 1
    1334     3668     3669 1
    1335      610      613 1
    1336     8293     8294 1
    1337     1169     1171 1
    1338     9400     9403 1
    1339     1000     1003 1
    1340     3556     3559 1
    1341     1292     1295 1
    1342     6960     6963 1
    1343      479      477 1
    1344     3489     3492 1
    1345     4687     4688 1
    1346     4625     4622 1
    1347     4897     4900 1
    1348     9574     9577 1
    1349      955      952 1
    1350     1599     1598 1
    1351     9265     9268 1
    1352      908      906 1
    1353     7309     7311 1
    1354     5885     5888 1
    1355    10108    10110 1
    1356     2378     2380 1
    1357     2897     2899 1
    1358      459      460 1
    1359     4396     4399 1
    1360     8443     8446 1
    1361      970      972 1
    1362     5421     5423 1
    1363     7699     7702 1
    1364     8947     8950 1
    1365     3079     3082 1
    1366     8464     8465 1
    1367        2        1 1
    1368     4719     4721 1
    1369     2715     2717 1
    1370     7627     7628 1
    1371     3856     3854 1
    1372     6574     6577 1
    1373    10243    10246 1
    1374     9739     9742 1
    1375    10042    10045 1
    1376     9217     9220 1
    1377     1970     1973 1
    1378     8209     8212 1
    1379     4112     4115 1
    1380     9721     9724 1
    1381     2489     2492 1
    1382     4683     4680 1
    1383     5114     5117 1
    1384     9895     9898 1
    1385     2016     2023 1
    1386     1402     1399 1
    1387     5700     5703 1
    1388     7408     7410 1
    1389     8146     8147 1
    1390     8650     8651 1
    1391    10162    10163 1
    1392     2637     2638 1
    1393      402      403 1
    1394     7857     7859 1
    1395     2767     2770 1
    1396     6694     6695 1
    1397     5456     5457 1
    1398     5604     5605 1
    1399     8361     8363 1
    1400     4106     4107 1
    1401     1426     1427 1
    1402     2789     2790 1
    1403     1610     1611 1
    1404     3286     3288 1
    1405     5577     5579 1
    1406     8584     8586 1
    1407     8080     8082 1
    1408     5595     5598 1
    1409     5992     5994 1
    1410     9592     9594 1
    1411      304      306 1
    1412     5656     5653 1
    1413     8449     8450 1
    1414     8953     8954 1
    1415     1900     1901 1
    1416     4677     4678 1
    1417     3598     3600 1
    1418     3018     3021 1
    1419     6620     6623 1
    1420     3851     3853 1
    1421     7474     7476 1
    1422     5279     5285 1
    1423     5384     5387 1
    1424     4961     4962 1
    1425     5311     5314 1
    1426     1465     1468 1
    1427     4212     4214 1
    1428     1795     1797 1
    1429     3396     3399 1
    1430     5255     5264 1
    1431     3039     3041 1
    1432     4955     4958 1
    1433     5970     5971 1
    1434     8680     8681 1
    1435     4719     4720 1
    1436     6387     6388 1
    1437     4856     4858 1
    1438     5870     5872 1
    1439      752      753 1
    1440     5832     5833 1
    1441     2526     2527 1
    1442     1187     1188 1
    1443      597      596 1
    1444     6647     6648 1
    1445     6891     6892 1
    1446     7243     7246 1
    1447     9427     9429 1
    1448     6302     6304 1
    1449      727      728 1
    1450     6978     6980 1
    1451     4958     4960 1
    1452     2420     2415 1
    1453      152      155 1
    1454     6258     6261 1
    1455     9826     9823 1
    1456      652      653 1
    1457      130      131 1
    1458     5586     5587 1
    1459     3862     3864 1
    1460     5033     5035 1
    1461     3526     3528 1
    1462     2921     2922 1
    1463     2166     2168 1
    1464     4033     4035 1
    1465     3734     3737 1
    1466     5429     5431 1
    1467      846      847 1
    1468     5894     5895 1
    1469     6444     6445 1
    1470     8716     8719 1
    1471     5613     5615 1
    1472     6991     6994 1
    1473      897      898 1
    1474     2428     2415 1
    1475     7510     7512 1
    1476     9784     9787 1
    1477     7783     7786 1
    1478     5369     5372 1
    1479     3556     3558 1
    1480     5076     5077 1
    1481     1834     1835 1
    1482     8437     8439 1
    1483     7312     7314 1
    1484     7327     7330 1
    1485       66       69 1
    1486     4209     4211 1
    1487     7402     7405 1
    1488     9049     9050 1
    1489     7258     7259 1
    1490     7681     7682 1
    1491     2831     2832 1
    1492     2039     2042 1
    1493     1309     1303 1
    1494     3822     3823 1
    1495     7618     7619 1
    1496     8905     8906 1
    1497     9016     9018 1
    1498     3517     3520 1
    1499     4955     4957 1
    1500     1142     1144 1
    1501     4187     4190 1
    1502     3607     3609 1
    1503      862      853 1
    1504     8293     8235 1
    1505      995      996 1
    1506     6384     6387 1
    1507     3578     3581 1
    1508     8533     8536 1
    1509     1011     1013 1
    1510     1514     1516 1
    1511     2393     2395 1
    1512     3218     3220 1
    1513     1843     1845 1
    1514     6699     6700 1
    1515     3121     3122 1
    1516     1109     1106 1
    1517     6638     6639 1
    1518     6123     6125 1
    1519      578      569 1
    1520     6369     6370 1
    1521    10129    10132 1
    1522     1421     1422 1
    1523     9010     9013 1
    1524        6        7 1
    1525      841      840 1
    1526     3015     3018 1
    1527     7540     7541 1
    1528     9175     9176 1
    1529     4030     4033 1
    1530     5085     5086 1
    1531     7651     7653 1
    1532    10003    10005 1
    1533     9499     9501 1
    1534     8491     8493 1
    1535     2906     2903 1
    1536     2263     2264 1
    1537     4390     4392 1
    1538      298      300 1
    1539     3073     3075 1
    1540       25       27 1
    1541     9949     9951 1
    1542     4671     4673 1
    1543     4734     4737 1
    1544     3810     3813 1
    1545     7513     7515 1
    1546     1879     1881 1
    1547      520      521 1
    1548     8851     8853 1
    1549     9355     9357 1
    1550     9859     9861 1
    1551     8347     8349 1
    1552     6719     6721 1
    1553      489      490 1
    1554     7216     7218 1
    1555     4042     4044 1
    1556     1196     1198 1
    1557     4230     4232 1
    1558     7348     7350 1
    1559     3946     3947 1
    1560     8833     8836 1
    1561     7825     7828 1
    1562     3544     3547 1
    1563     3286     3289 1
    1564     2115     2117 1
    1565     9112     9114 1
    1566     3698     3700 1
    1567     3459     3462 1
    1568     1480     1482 1
    1569     3184     3187 1
    1570     6311     6314 1
    1571     4474     4477 1
    1572     3335     3338 1
    1573     5912     5853 1
    1574     3366     3369 1
    1575     4094     4091 1
    1576     9250     9251 1
    1577     8746     8747 1
    1578     9079     9081 1
    1579     4499     4501 1
    1580     4628     4631 1
    1581      350      351 1
    1582     3782     3780 1
    1583     8683     8684 1
    1584      720      722 1
    1585     7828     7831 1
    1586     7147     7150 1
    1587     9550     9551 1
    1588     7528     7530 1
    1589      724      726 1
    1590     9046     9047 1
    1591     1930     1933 1
    1592     5906     5907 1
    1593     2918     2919 1
    1594     6045     6046 1
    1595     1721     1722 1
    1596     9241     9184 1
    1597     1852     1855 1
    1598     7714     7715 1
    1599     2169     2170 1
    1600     2804     2805 1
    1601     6097     6099 1
    1602     8944     8946 1
    1603     7210     7211 1
    1604     9448     9450 1
    1605     9952     9954 1
    1606     2854     2855 1
    1607      701      702 1
    1608     5505     5506 1
    1609     5474     5475 1
    1610     6384     6385 1
    1611     2005     2010 1
    1612     5285     5286 1
    1613      349      347 1
    1614       72       74 1
    1615     2952     2954 1
    1616     7333     7335 1
    1617     3414     3416 1
    1618     9495     9496 1
    1619     7983     7984 1
    1620     4734     4736 1
    1621     2718     2720 1
    1622     7690     7692 1
    1623     4922     4924 1
    1624     9313     9316 1
    1625     2885     2888 1
    1626     6196     6137 1
    1627     4492     4433 1
    1628      613      616 1
    1629      544      545 1
    1630      309      305 1
    1631     1092     1091 1
    1632      988      991 1
    1633     8335     8338 1
    1634     8839     8842 1
    1635     9847     9850 1
    1636     9628     9630 1
    1637    10132    10134 1
    1638     1856     1858 1
    1639     7747     7749 1
    1640     4728     4730 1
    1641     7243     7245 1
    1642     7387     7389 1
    1643     3024     3027 1
    1644     4964     4967 1
    1645     2227     2228 1
    1646     6583     6586 1
    1647     4149     4150 1
    1648     9676     9678 1
    1649     4830     4832 1
    1650     7049     7051 1
    1651     1284     1279 1
    1652     2634     2637 1
    1653     9841     9844 1
    1654     2837     2838 1
    1655     9982     9985 1
    1656    10150    10151 1
    1657     8638     8639 1
    1658      202      205 1
    1659     5308     5311 1
    1660     1590     1592 1
    1661     3514     3516 1
    1662     7114     7116 1
    1663     3483     3485 1
    1664    10062    10065 1
    1665     9054     9057 1
    1666     6326     6327 1
    1667     6632     6633 1
    1668     2604     2607 1
    1669     6137     6138 1
    1670      643      644 1
    1671     2097     2094 1
    1672     9558     9561 1
    1673     6357     6358 1
    1674     5770     5711 1
    1675     7192     7193 1
    1676     1709     1706 1
    1677     3498     3439 1
    1678     5997     5998 1
    1679     7261     7264 1
    1680      885      886 1
    1681     9427     9369 1
    1682      683      686 1
    1683     5731     5734 1
    1684     7927     7928 1
    1685     2704     2705 1
    1686     4384     4385 1
    1687     1030     1032 1
    1688     8935     8936 1
    1689     9943     9944 1
    1690     1069     1070 1
    1691     4928     4930 1
    1692     4897     4899 1
    1693      268      266 1
    1694     1746     1743 1
    1695     1008     1010 1
    1696     5823     5824 1
    1697     9262     9263 1
    1698     4468     4469 1
    1699     8758     8759 1
    1700      514      515 1
    1701     3601     3602 1
    1702     2928     2929 1
    1703     5816     5817 1
    1704     6103     6104 1
    1705     1622     1623 1
    1706     5499     5500 1
    1707     1792     1794 1
    1708     3360     3363 1
    1709     5563     5564 1
    1710     2573     2574 1
    1711     7036     7037 1
    1712     7111     7114 1
    1713     9079     9082 1
    1714       36       38 1
    1715     1387     1390 1
    1716      599      658 1
    1717     2155     2151 1
    1718     4412     4413 1
    1719     9922     9924 1
    1720     8410     8412 1
    1721     2558     2560 1
    1722     7561     7562 1
    1723      478      477 1
    1724     6668     6669 1
    1725     6415     6416 1
    1726     1004     1007 1
    1727     7479     7482 1
    1728     4160     4161 1
    1729     7813     7814 1
    1730     1828     1829 1
    1731     7132     7133 1
    1732     4764     4765 1
    1733     7135     7138 1
    1734     1156     1158 1
    1735     6765     6767 1
    1736     3945     3943 1
    1737     3641     3644 1
    1738     4706     4709 1
    1739      711      716 1
    1740     4363     4366 1
    1741     1211     1214 1
    1742     6372     6375 1
    1743     9199     9202 1
    1744     4668     4671 1
    1745    10207    10210 1
    1746     9967     9970 1
    1747     8959     8962 1
    1748     8455     8458 1
    1749     5798     5801 1
    1750     2937     2939 1
    1751     8424     8426 1
    1752     4254     4256 1
    1753      979      981 1
    1754     5831     5828 1
    1755      353      356 1
    1756     7015     7018 1
    1757     6221     6224 1
    1758     1550     1553 1
    1759     6435     6437 1
    1760     2242     2245 1
    1761     8908     8905 1
    1762     1434     1421 1
    1763     2865     2871 1
    1764     7489     7486 1
    1765     5021     5024 1
    1766     2689     2692 1
    1767     3280     3283 1
    1768     1216     1214 1
    1769    10165    10166 1
    1770     9661     9662 1
    1771      211      212 1
    1772     9328     9329 1
    1773     9832     9833 1
    1774     8320     8321 1
    1775     6502     6503 1
    1776     4009     4010 1
    1777     1834     1836 1
    1778     5076     5078 1
    1779      798      800 1
    1780     2434     2437 1
    1781     8530     8533 1
    1782     9538     9541 1
    1783     7717     7719 1
    1784     4906     4908 1
    1785     1266     1268 1
    1786     2807     2809 1
    1787     6407     6409 1
    1788     2172     2174 1
    1789     7213     7215 1
    1790    10225    10227 1
    1791     3885     3887 1
    1792     1115     1116 1
    1793     8596     8599 1
    1794     8092     8095 1
    1795     6468     6471 1
    1796     7759     7760 1
    1797     7786     7787 1
    1798     4731     4732 1
    1799     5166     5167 1
    1800     6453     6454 1
    1801     5934     5935 1
    1802     2979     2980 1
    1803     3169     3170 1
    1804     7603     7546 1
    1805     4848     4852 1
    1806     5650     5651 1
    1807     2798     2801 1
    1808     1456     1457 1
    1809     2060     2061 1
    1810     4783     4784 1
    1811     6571     6574 1
    1812     7630     7633 1
    1813     9421     9424 1
    1814     5397     5402 1
    1815     3973     3974 1
    1816     5626     5629 1
    1817     5937     5938 1
    1818     3956     3955 1
    1819     7489     7491 1
    1820     8776     8778 1
    1821     7657     7660 1
    1822      894      891 1
    1823    10030    10032 1
    1824     9526     9528 1
    1825     6305     6307 1
    1826     1852     1854 1
    1827     2109     2110 1
    1828     5595     5596 1
    1829     4961     4963 1
    1830      891      892 1
    1831     1326     1328 1
    1832     4991     4995 1
    1833      523      525 1
    1834     7879     7880 1
    1835     7375     7376 1
    1836     9124     9127 1
    1837      727      729 1
    1838     3764     3766 1
    1839      187      189 1
    1840     7351     7294 1
    1841     2115     2118 1
    1842     5586     5588 1
    1843      130      132 1
    1844     2196     2193 1
    1845     1150     1137 1
    1846     1082     1084 1
    1847     7000     7003 1
    1848     3349     3347 1
    1849     3682     3680 1
    1850     9892     9893 1
    1851     8380     8381 1
    1852     4132     4134 1
    1853     4980     4981 1
    1854     1918     1920 1
    1855     1440     1442 1
    1856     7684     7685 1
    1857     8644     8646 1
    1858    10156    10158 1
    1859    10102    10104 1
    1860     9094     9096 1
    1861     6169     6172 1
    1862     4514     4516 1
    1863     4465     4468 1
    1864      964      966 1
    1865     5499     5502 1
    1866     9472     9469 1
    1867     1900     1897 1
    1868     3946     3948 1
    1869     1993     1990 1
    1870     2326     2327 1
    1871     1501     1502 1
    1872     5378     5379 1
    1873     2810     2813 1
    1874     7058     7061 1
    1875     7027     7030 1
    1876       15       14 1
    1877     5184     5186 1
    1878     2798     2800 1
    1879     5215     5217 1
    1880     8155     8158 1
    1881     5682     5683 1
    1882     2140     2141 1
    1883     8487     8490 1
    1884     5268     5270 1
    1885     2535     2537 1
    1886     9999    10002 1
    1887     7663     7605 1
    1888     3372     3375 1
    1889     4085     4088 1
    1890     8860     8862 1
    1891     8356     8358 1
    1892     6728     6730 1
    1893     9868     9870 1
    1894      849      852 1
    1895     1976     1979 1
    1896     7579     7580 1
    1897     9073     9076 1
    1898      446      450 1
    1899     8794     8797 1
    1900     3746     3747 1
    1901      779      776 1
    1902     3450     3451 1
    1903     4767     4768 1
    1904     5595     5592 1
    1905     6314     6316 1
    1906     9184     9185 1
    1907    10192    10193 1
    1908     2013     2014 1
    1909     2857     2858 1
    1910     4610     4612 1
    1911      223      224 1
    1912     5752     5753 1
    1913     9688     9689 1
    1914     6396     6391 1
    1915     1462     1463 1
    1916     7639     7640 1
    1917     3774     3773 1
    1918     1205     1206 1
    1919     5783     5785 1
    1920     1233     1235 1
    1921    10051    10052 1
    1922     9754     9757 1
    1923      498      501 1
    1924     1934     1936 1
    1925     5589     5592 1
    1926     8242     8245 1
    1927     5148     5150 1
    1928     4048     4045 1
    1929     7654     7657 1
    1930     1680     1681 1
    1931     6870     6871 1
    1932     7777     7778 1
    1933     1985     1982 1
    1934     1063     1064 1
    1935     7231     7232 1
    1936     7735     7736 1
    1937     3946     3943 1
    1938      985      982 1
    1939     3070     3072 1
    1940     4459     4460 1
    1941     9070     9071 1
    1942     3323     3324 1
    1943     2498     2499 1
    1944     2529     2530 1
    1945     4143     4144 1
    1946     1317     1320 1
    1947     4595     4596 1
    1948     2178     2179 1
    1949     4427     4428 1
    1950      162      165 1
    1951     7777     7780 1
    1952     2352     2350 1
    1953     4743     4746 1
    1954     2230     2232 1
    1955     5716     5718 1
    1956      440      441 1
    1957     4564     4568 1
    1958     5577     5580 1
    1959     8584     8587 1
    1960     9910     9913 1
    1961     8398     8401 1
    1962     5992     5995 1
    1963     8080     8083 1
    1964     5212     5209 1
    1965     9592     9595 1
    1966     5424     5427 1
    1967     3227     3230 1
    1968     7993     7994 1
    1969     1985     1988 1
    1970     6900     6903 1
    1971     3923     3922 1
    1972     8977     8980 1
    1973      738      741 1
    1974      205      208 1
    1975     1036     1037 1
    1976     1945     1943 1
    1977     2158     2160 1
    1978     2072     2074 1
    1979     4245     4247 1
    1980     5326     5329 1
    1981     8626     8627 1
    1982     6925     6928 1
    1983     8701     8702 1
    1984     2420     2421 1
    1985     8197     8198 1
    1986    10213    10214 1
    1987     8851     8848 1
    1988     1462     1465 1
    1989     3917     3915 1
    1990     9684     9686 1
    1991     9082     9084 1
    1992     2054     2056 1
    1993     3280     3282 1
    1994     6206     6208 1
    1995     9301     9243 1
    1996     1127     1124 1
    1997     3653     3655 1
    1998     1133     1134 1
    1999     2360     2363 1
    2000     8368     8371 1
    2001     4535     4537 1
    2002     7324     7326 1
    2003     9283     9286 1
    2004     4160     4163 1
    2005     9508     9511 1
    2006     8500     8503 1
    2007     4577     4578 1
    2008     2344     2341 1
    2009     6342     6344 1
    2010    10201    10203 1
    2011     3410     3412 1
    2012     9810     9812 1
    2013     2016     2018 1
    2014     6907     6909 1
    2015     8298     8300 1
    2016     3709     3714 1
    2017     4688     4690 1
    2018     9157     9160 1
    2019     2237     2236 1
    2020     7111     7112 1
    2021     2961     2962 1
    2022      985      986 1
    2023     6613     6616 1
    2024     3357     3358 1
    2025     2005     2006 1
    2026     3082     3083 1
    2027     7429     7432 1
    2028     5206     5207 1
    2029     6091     6092 1
    2030     8014     8017 1
    2031     2300     2301 1
    2032     9940     9941 1
    2033     3134     3135 1
    2034     5264     5266 1
    2035     7537     7539 1
    2036     7987     7989 1
    2037     6456     6458 1
    2038     7120     7122 1
    2039     3160     3162 1
    2040     7801     7803 1
    2041     6487     6489 1
    2042     1568     1569 1
    2043     7945     7946 1
    2044     3272     3273 1
    2045     4616     4619 1
    2046     7465     7468 1
    2047     5690     5681 1
    2048     4360     4363 1
    2049     4277     4279 1
    2050     9316     9318 1
    2051     1788     1790 1
    2052     7477     7420 1
    2053      862      863 1
    2054     4807     4809 1
    2055    10120    10122 1
    2056     3393     3396 1
    2057     4532     4534 1
    2058     1288     1291 1
    2059     4873     4876 1
    2060      275      278 1
    2061     9133     9135 1
    2062     2999     3004 1
    2063     1488     1486 1
    2064     2024     2021 1
    2065     9547     9548 1
    2066      127      124 1
    2067     7870     7871 1
    2068     9262     9264 1
    2069     4468     4470 1
    2070     8758     8760 1
    2071     7168     7169 1
    2072     3091     3092 1
    2073     3121     3124 1
    2074     2109     2111 1
    2075     5595     5597 1
    2076      891      893 1
    2077     1843     1846 1
    2078     4864     4866 1
    2079     6676     6678 1
    2080     7411     7353 1
    2081     3671     3668 1
    2082     4949     4952 1
    2083     7561     7563 1
    2084     7414     7357 1
    2085     6246     6245 1
    2086     1847     1856 1
    2087     8233     8176 1
    2088      427      440 1
    2089     2127     2128 1
    2090     7042     7043 1
    2091     4984     4986 1
    2092      741      800 1
    2093     2850     2841 1
    2094     4990     4993 1
    2095      468      471 1
    2096     8572     8573 1
    2097     9580     9581 1
    2098     5290     5291 1
    2099     1650     1651 1
    2100     6994     6995 1
    2101      946      947 1
    2102      411      414 1
    2103    10084    10085 1
    2104     7351     7352 1
    2105     2921     2923 1
    2106     3245     3246 1
    2107      375      376 1
    2108     6107     6112 1
    2109     6826     6827 1
    2110     2695     2696 1
    2111     5027     5028 1
    2112     5103     5106 1
    2113     8071     8074 1
    2114     4293     4294 1
    2115     5539     5544 1
    2116     9835     9838 1
    2117     9805     9807 1
    2118     9301     9303 1
    2119     9208     9211 1
    2120      220      223 1
    2121     2353     2354 1
    2122     6665     6668 1
    2123     9832     9834 1
    2124     6502     6504 1
    2125     9328     9330 1
    2126     8902     8904 1
    2127    10048    10051 1
    2128      529      532 1
    2129     8320     8322 1
    2130     7999     8002 1
    2131     7831     7834 1
    2132     7150     7153 1
    2133     3909     3911 1
    2134     1106     1108 1
    2135      712      714 1
    2136     3710     3709 1
    2137     7654     7655 1
    2138     6194     6195 1
    2139       31       32 1
    2140      854      855 1
    2141     1115     1117 1
    2142     3021     3022 1
    2143     1242     1243 1
    2144     5839     5844 1
    2145     5810     5813 1
    2146    10219    10222 1
    2147     6134     6135 1
    2148      640      641 1
    2149     6354     6355 1
    2150     6323     6324 1
    2151     7786     7788 1
    2152     2238     2236 1
    2153     2557     2570 1
    2154      924      927 1
    2155     2979     2981 1
    2156     3169     3171 1
    2157     3677     3678 1
    2158     1607     1610 1
    2159     7906     7907 1
    2160      776      777 1
    2161     9646     9648 1
    2162     8134     8136 1
    2163     3115     3116 1
    2164     9991     9992 1
    2165     2511     2512 1
    2166     4870     4873 1
    2167     8137     8134 1
    2168     1332     1334 1
    2169     1381     1383 1
    2170     9634     9636 1
    2171    10138    10140 1
    2172      767      769 1
    2173     4634     4575 1
    2174     5360     5362 1
    2175     3964     3965 1
    2176     2314     2315 1
    2177     8290     8291 1
    2178     4888     4890 1
    2179     6946     6948 1
    2180     1646     1648 1
    2181     8191     8193 1
    2182       17       19 1
    2183     3350     3352 1
    2184     7456     7458 1
    2185     9982     9984 1
    2186     5722     5724 1
    2187     2471     2473 1
    2188     7040     7039 1
    2189      483      480 1
    2190     1164     1171 1
    2191     3661     3659 1
    2192     3746     3743 1
    2193     3163     3164 1
    2194     2912     2913 1
    2195     7255     7257 1
    2196      758      759 1
    2197    10087    10090 1
    2198     9739     9736 1
    2199     9796     9797 1
    2200     9292     9293 1
    2201     8788     8789 1
    2202     6145     6148 1
    2203     3830     3828 1
    2204     5771     5773 1
    2205     5740     5742 1
    2206     6919     6921 1
    2207     5910     5913 1
    2208     4706     4708 1
    2209     7399     7400 1
    2210     6453     6450 1
    2211     7366     7363 1
    2212     6526     6527 1
    2213     9535     9536 1
    2214     4190     4192 1
    2215     9031     9032 1
    2216     8068     8070 1
    2217     2048     2050 1
    2218    10039    10040 1
    2219     1724     1728 1
    2220     2779     2781 1
    2221     6656     6658 1
    2222     7720     7722 1
    2223     2723     2729 1
    2224     6021     6023 1
    2225     9624     9621 1
    2226     7073     7070 1
    2227     7117     7119 1
    2228     6813     6815 1
    2229     6396     6398 1
    2230     2967     2969 1
    2231     6209     6211 1
    2232     7798     7800 1
    2233      341      343 1
    2234     5641     5644 1
    2235     7061     7064 1
    2236     6160     6163 1
    2237     4625     4628 1
    2238     2825     2828 1
    2239     6067     6070 1
    2240     6036     6039 1
    2241     4332     4335 1
    2242      659      662 1
    2243     4326     4328 1
    2244     2338     2339 1
    2245     4511     4512 1
    2246     7123     7124 1
    2247      290      291 1
    2248     2708     2709 1
    2249     2906     2908 1
    2250      396      398 1
    2251    10099    10100 1
    2252     9334     9336 1
    2253     3010     3013 1
    2254     8017     8018 1
    2255     8464     8466 1
    2256     1877     1874 1
    2257     3146     3141 1
    2258     2326     2328 1
    2259     1501     1503 1
    2260     5378     5380 1
    2261      888      889 1
    2262     7135     7136 1
    2263     8824     8825 1
    2264     2704     2707 1
    2265      570      571 1
    2266     5943     5944 1
    2267      440      443 1
    2268     7864     7865 1
    2269     5552     5553 1
    2270     2819     2820 1
    2271     6937     6939 1
    2272     7447     7449 1
    2273     4326     4327 1
    2274     5674     5677 1
    2275     3689     3686 1
    2276     5323     5324 1
    2277     5958     5959 1
    2278     9757     9760 1
    2279     1025     1019 1
    2280     7534     7535 1
    2281     8245     8248 1
    2282     5354     5355 1
    2283     8605     8606 1
    2284      730      731 1
    2285    10125    10126 1
    2286     4124     4125 1
    2287     7399     7396 1
    2288     2140     2142 1
    2289     5682     5684 1
    2290     9295     9292 1
    2291     8791     8788 1
    2292     2144     2147 1
    2293     1714     1715 1
    2294     5780     5781 1
    2295     6190     6193 1
    2296     2873     2876 1
    2297      486      488 1
    2298     7381     7382 1
    2299      454      455 1
    2300       36       39 1
    2301     3666     3665 1
    2302     3734     3731 1
    2303     7426     7423 1
    2304     3450     3452 1
    2305     4767     4769 1
    2306      541      543 1
    2307     9403     9405 1
    2308      761      763 1
    2309     6792     6794 1
    2310      346      344 1
    2311     8560     8562 1
    2312     5989     5991 1
    2313     2036     2038 1
    2314     9064     9066 1
    2315      846      849 1
    2316     4879     4882 1
    2317     5514     5517 1
    2318    10051    10053 1
    2319     8563     8566 1
    2320      356      358 1
    2321     7018     7020 1
    2322     1553     1555 1
    2323     2584     2587 1
    2324     1894     1897 1
    2325     1369     1366 1
    2326     9703     9706 1
    2327      196      197 1
    2328     6568     6569 1
    2329     7723     7726 1
    2330     9388     9389 1
    2331     4351     4354 1
    2332     3683     3685 1
    2333     5520     5522 1
    2334     4976     4979 1
    2335    10186    10129 1
    2336     9841     9842 1
    2337     5665     5668 1
    2338     1266     1269 1
    2339     6641     6644 1
    2340     4906     4909 1
    2341    10225    10228 1
    2342     9718     9719 1
    2343     8710     8711 1
    2344     3677     3680 1
    2345     6003     6004 1
    2346     8206     8207 1
    2347     9214     9215 1
    2348     1544     1545 1
    2349     7879     7882 1
    2350     7507     7508 1
    2351     7279     7276 1
    2352     3552     3555 1
    2353     6838     6833 1
    2354      738      740 1
    2355     4178     4175 1
    2356     8773     8774 1
    2357     9277     9278 1
    2358     2274     2275 1
    2359     9994     9995 1
    2360     4625     4626 1
    2361     6126     6127 1
    2362     5129     5130 1
    2363     3190     3191 1
    2364     3221     3222 1
    2365     3118     3119 1
    2366     1692     1694 1
    2367     4900     4901 1
    2368      217      219 1
    2369     6817     6826 1
    2370     4508     4510 1
    2371    10096    10098 1
    2372     2335     2337 1
    2373      118      121 1
    2374     6230     6233 1
    2375     7297     7299 1
    2376     8632     8635 1
    2377     3453     3456 1
    2378     8128     8131 1
    2379     4288     4290 1
    2380     3649     3647 1
    2381     1782     1779 1
    2382     7627     7629 1
    2383     4569     4570 1
    2384     6273     6274 1
    2385     3650     3652 1
    2386     9495     9498 1
    2387     7983     7986 1
    2388     6499     6500 1
    2389     8635     8638 1
    2390     1227     1224 1
    2391     2613     2615 1
    2392     1732     1734 1
    2393     5819     5822 1
    2394     5402     5405 1
    2395     8125     8127 1
    2396     7396     7398 1
    2397     2387     2389 1
    2398     5114     5116 1
    2399     5629     5631 1
    2400     2323     2320 1
    2401     5598     5600 1
    2402     3913     3912 1
    2403      130      133 1
    2404     5586     5589 1
    2405     6959     6968 1
    2406     7111     7113 1
    2407     2961     2963 1
    2408     5713     5714 1
    2409     4801     4798 1
    2410     4422     4425 1
    2411     8188     8190 1
    2412     7672     7673 1
    2413     4163     4164 1
    2414     6964     6965 1
    2415     1831     1832 1
    2416     3260     3261 1
    2417     2353     2355 1
    2418     3941     3940 1
    2419     1033     1030 1
    2420     5030     5033 1
    2421     1610     1612 1
    2422     6694     6696 1
    2423     5456     5458 1
    2424     7915     7917 1
    2425     4964     4966 1
    2426     8461     8463 1
    2427     8275     8277 1
    2428     3723     3717 1
    2429     3541     3542 1
    2430     1100     1103 1
    2431     8038     8039 1
    2432      874      869 1
    2433     4012     4013 1
    2434      115      118 1
    2435     2650     2651 1
    2436     9472     9473 1
    2437     5126     5113 1
    2438     3560     3563 1
    2439      417      418 1
    2440     1773     1774 1
    2441     7273     7274 1
    2442     1441     1445 1
    2443     1335     1338 1
    2444     3628     3630 1
    2445     6949     6952 1
    2446      233      236 1
    2447     5160     5163 1
    2448     5836     5839 1
    2449     1766     1764 1
    2450     3737     3740 1
    2451     2640     2642 1
    2452     8056     8058 1
    2453     9568     9570 1
    2454      903      905 1
    2455     2726     2728 1
    2456     5088     5090 1
    2457      752      754 1
    2458       91       92 1
    2459     5073     5076 1
    2460     6552     6553 1
    2461      310      309 1
    2462     4172     4173 1
    2463     8893     8895 1
    2464     9901     9903 1
    2465     3656     3658 1
    2466     2792     2789 1
    2467     3768     3767 1
    2468     5540     5542 1
    2469       88       90 1
    2470     2610     2607 1
    2471     4403     4404 1
    2472     2347     2349 1
    2473     8137     8138 1
    2474     5271     5273 1
    2475     2668     2669 1
    2476     2205     2208 1
    2477     3311     3314 1
    2478     1711     1710 1
    2479      465      462 1
    2480     8167     8169 1
    2481     6131     6133 1
    2482     1652     1593 1
    2483     4980     4982 1
    2484     5520     5521 1
    2485     7684     7686 1
    2486     2589     2590 1
    2487     5850     5852 1
    2488     4146     4147 1
    2489     8365     8367 1
    2490       94       96 1
    2491     8332     8334 1
    2492     4221     4224 1
    2493     2079     2082 1
    2494     3477     3480 1
    2495     3857     3854 1
    2496     1822     1824 1
    2497     5308     5310 1
    2498     8086     8088 1
    2499     5064     5066 1
    2500     1309     1310 1
    2501     4589     4592 1
    2502      773      770 1
    2503     7474     7416 1
    2504     7071     7070 1
    2505     3002     3005 1
    2506     5694     5695 1
    2507     4004     4005 1
    2508     6758     6759 1
    2509     8392     8393 1
    2510     7888     7889 1
    2511     3800     3798 1
    2512     1019     1020 1
    2513     9343     9344 1
    2514     6897     6898 1
    2515     7483     7485 1
    2516     1085     1086 1
    2517     7894     7897 1
    2518     8218     8220 1
    2519     9730     9732 1
    2520     8722     8724 1
    2521     6015     6017 1
    2522     8380     8383 1
    2523     1280     1281 1
    2524     5697     5698 1
    2525     2408     2410 1
    2526     2964     2965 1
    2527     7079     7081 1
    2528     7564     7566 1
    2529     1490     1489 1
    2530     4471     4472 1
    2531     2450     2452 1
    2532     3360     3362 1
    2533     4780     4782 1
    2534     4749     4751 1
    2535     7231     7234 1
    2536     2873     2875 1
    2537     3816     3819 1
    2538     8290     8292 1
    2539     1732     1735 1
    2540     4480     4481 1
    2541     2973     2974 1
    2542     9109     9111 1
    2543     2112     2114 1
    2544     8371     8373 1
    2545      791      793 1
    2546      570      569 1
    2547     9808     9809 1
    2548     8296     8297 1
    2549     9505     9502 1
    2550    10009    10006 1
    2551     9082     9085 1
    2552     1885     1882 1
    2553     8641     8638 1
    2554    10153    10150 1
    2555     6577     6578 1
    2556     8176     8177 1
    2557      704      705 1
    2558       88       89 1
    2559     5858     5859 1
    2560     1547     1548 1
    2561     8647     8648 1
    2562     9151     9152 1
    2563     9292     9294 1
    2564     4601     4602 1
    2565     9796     9798 1
    2566     7324     7327 1
    2567     1045     1047 1
    2568     3063     3064 1
    2569      819      820 1
    2570    10159    10160 1
    2571     8788     8790 1
    2572     5200     5201 1
    2573     4181     4182 1
    2574     5251     5252 1
    2575      668      669 1
    2576     4834     4835 1
    2577     8695     8697 1
    2578     6526     6528 1
    2579     1843     1840 1
    2580     7549     7546 1
    2581     7073     7074 1
    2582     4696     4699 1
    2583     2570     2571 1
    2584     5496     5497 1
    2585     4946     4947 1
    2586     1616     1618 1
    2587     2251     2253 1
    2588     7936     7938 1
    2589     6688     6690 1
    2590     6276     6283 1
    2591     2383     2381 1
    2592     4459     4461 1
    2593      854      857 1
    2594     9070     9072 1
    2595     8653     8655 1
    2596     8149     8151 1
    2597     4468     4471 1
    2598     6456     6459 1
    2599     7120     7123 1
    2600     7801     7804 1
    2601     3160     3163 1
    2602     6487     6490 1
    2603     1535     1532 1
    2604     8704     8707 1
    2605     8200     8203 1
    2606      888      890 1
    2607     7135     7137 1
    2608     8824     8826 1
    2609     9040     9043 1
    2610       97      100 1
    2611    10072    10075 1
    2612     3757     3755 1
    2613     2124     2127 1
    2614     2622     2624 1
    2615       48       50 1
    2616     7897     7898 1
    2617     9997     9940 1
    2618     1175     1178 1
    2619     9133     9134 1
    2620     3556     3551 1
    2621     2057     2060 1
    2622    10125    10127 1
    2623     1688     1686 1
    2624     3024     3021 1
    2625     7402     7403 1
    2626     9712     9713 1
    2627     4419     4420 1
    2628     5393     5396 1
    2629     9130     9132 1
    2630     4430     4437 1
    2631     6154     6156 1
    2632     6538     6533 1
    2633     3862     3863 1
    2634     9571     9572 1
    2635     8059     8060 1
    2636     6861     6863 1
    2637     5242     5244 1
    2638     4057     4059 1
    2639     3619     3621 1
    2640     5798     5800 1
    2641    10207    10209 1
    2642     9199     9201 1
    2643     2984     2987 1
    2644     7471     7473 1
    2645     4919     4921 1
    2646      538      541 1
    2647    10123    10066 1
    2648     3912     3915 1
    2649     8140     8143 1
    2650     9243     9245 1
    2651     8739     8741 1
    2652     1396     1398 1
    2653     2003     2002 1
    2654     9583     9584 1
    2655     5293     5294 1
    2656    10087    10088 1
    2657     8575     8576 1
    2658     1224     1225 1
    2659     8254     8255 1
    2660     7750     7751 1
    2661     9061     9062 1
    2662     3547     3548 1
    2663     1758     1759 1
    2664     2943     2944 1
    2665     7195     7196 1
    2666     7426     7427 1
    2667     6293     6294 1
    2668     2514     2515 1
    2669    10069    10070 1
    2670     8482     8483 1
    2671     6707     6709 1
    2672     9925     9928 1
    2673     8953     8956 1
    2674     3668     3670 1
    2675     2837     2839 1
    2676     7762     7764 1
    2677     3803     3801 1
    2678     3909     3910 1
    2679     8407     8410 1
    2680     9919     9922 1
    2681     1356     1359 1
    2682     6687     6684 1
    2683     2653     2654 1
    2684     9100     9101 1
    2685     4520     4521 1
    2686     5202     5143 1
    2687      872      874 1
    2688     5665     5667 1
    2689     6250     6252 1
    2690     1819     1821 1
    2691     5061     5063 1
    2692     2949     2952 1
    2693     3492     3494 1
    2694     7507     7509 1
    2695     3422     3425 1
    2696     6688     6691 1
    2697     2230     2227 1
    2698     9088     9085 1
    2699     5978     5965 1
    2700     3169     3172 1
    2701     4903     4906 1
    2702      145      144 1
    2703     4060     4062 1
    2704     7624     7626 1
    2705     8911     8913 1
    2706      716      718 1
    2707     9415     9417 1
    2708     5816     5818 1
    2709     1622     1624 1
    2710     5499     5501 1
    2711     5563     5565 1
    2712     2028     2027 1
    2713     6103     6105 1
    2714     3601     3603 1
    2715      214      217 1
    2716      619      621 1
    2717     2573     2575 1
    2718      582      585 1
    2719     9100     9103 1
    2720     9364     9365 1
    2721     1164     1165 1
    2722     2607     2608 1
    2723     4569     4571 1
    2724     9994     9936 1
    2725     6273     6275 1
    2726     2375     2376 1
    2727     2894     2895 1
    2728      465      466 1
    2729     1767     1768 1
    2730     6523     6524 1
    2731     4819     4820 1
    2732     3931     3933 1
    2733     3202     3203 1
    2734     7162     7163 1
    2735     2155     2156 1
    2736     5184     5187 1
    2737     5215     5218 1
    2738     6107     6116 1
    2739     8785     8786 1
    2740     2127     2129 1
    2741     4403     4408 1
    2742     7042     7044 1
    2743     5387     5388 1
    2744     3967     3970 1
    2745      170      172 1
    2746     2700     2701 1
    2747     9247     9249 1
    2748     8743     8745 1
    2749     3918     3921 1
    2750     9589     9586 1
    2751     4696     4698 1
    2752      362      363 1
    2753     2934     2935 1
    2754     2903     2904 1
    2755     3453     3454 1
    2756     5151     5153 1
    2757     4163     4165 1
    2758     6964     6966 1
    2759     2628     2629 1
    2760     1831     1833 1
    2761     3260     3262 1
    2762     7495     7498 1
    2763     9286     9289 1
    2764     5332     5335 1
    2765     4813     4816 1
    2766     8998     9000 1
    2767     5363     5366 1
    2768     3465     3468 1
    2769     2311     2314 1
    2770     6991     6993 1
    2771     9418     9421 1
    2772      103      100 1
    2773       51       54 1
    2774     6702     6705 1
    2775     6407     6412 1
    2776     6299     6301 1
    2777     4493     4496 1
    2778     6197     6200 1
    2779     9424     9425 1
    2780     2650     2652 1
    2781     9472     9474 1
    2782     7633     7634 1
    2783     7012     7015 1
    2784     8917     8919 1
    2785     9925     9927 1
    2786     5203     5204 1
    2787     4196     4199 1
    2788     5172     5173 1
    2789     3647     3644 1
    2790     6780     6777 1
    2791     8467     8468 1
    2792     3347     3348 1
    2793     7180     7181 1
    2794     3103     3104 1
    2795     8971     8972 1
    2796     2589     2591 1
    2797     4236     4239 1
    2798     9319     9321 1
    2799     5925     5928 1
    2800     2616     2618 1
    2801     2647     2649 1
    2802      746      743 1
    2803     6680     6682 1
    2804    10222    10223 1
    2805     7423     7424 1
    2806     3787     3786 1
    2807     5100     5103 1
    2808     5813     5814 1
    2809     5178     5179 1
    2810     9391     9394 1
    2811     5132     5135 1
    2812     2712     2699 1
    2813     8023     8025 1
    2814     8527     8529 1
    2815     9037     9038 1
    2816     1453     1455 1
    2817      535      537 1
    2818      230      233 1
    2819     1118     1120 1
    2820     1284     1285 1
    2821     1372     1373 1
    2822     6363     6365 1
    2823     4659     4661 1
    2824     1576     1577 1
    2825     1414     1416 1
    2826     3287     3291 1
    2827     5690     5693 1
    2828     5819     5821 1
    2829     4940     4942 1
    2830     2767     2769 1
    2831     5402     5404 1
    2832     7708     7710 1
    2833     5137     5143 1
    2834     2828     2831 1
    2835     7234     7236 1
    2836     3233     3235 1
    2837     2598     2600 1
    2838     7843     7845 1
    2839     2260     2262 1
    2840      260      257 1
    2841     9271     9274 1
    2842     8767     8770 1
    2843     4722     4725 1
    2844     3267     3272 1
    2845      798      799 1
    2846     4749     4752 1
    2847    10141    10143 1
    2848     5940     5941 1
    2849      801      803 1
    2850     3474     3477 1
    2851     9637     9639 1
    2852     4822     4825 1
    2853     1816     1813 1
    2854     2063     2064 1
    2855     8629     8631 1
    2856     7900     7902 1
    2857      961      962 1
    2858     4789     4792 1
    2859     7792     7793 1
    2860     5091     5093 1
    2861     3977     3978 1
    2862     5694     5696 1
    2863     4004     4006 1
    2864     7711     7712 1
    2865     6616     6617 1
    2866     7864     7867 1
    2867     4051     4052 1
    2868     2734     2735 1
    2869     7918     7919 1
    2870      365      366 1
    2871     4054     4056 1
    2872     7267     7269 1
    2873     7771     7773 1
    2874      585      590 1
    2875     1085     1087 1
    2876     3532     3535 1
    2877     4048     4050 1
    2878     8536     8538 1
    2879     9130     9133 1
    2880     3860     3859 1
    2881     9022     9023 1
    2882     3079     3080 1
    2883     4396     4397 1
    2884     8443     8444 1
    2885     3595     3597 1
    2886     8947     8948 1
    2887     1801     1802 1
    2888     8146     8149 1
    2889     4508     4511 1
    2890    10096    10099 1
    2891     2335     2338 1
    2892     7297     7300 1
    2893     4288     4291 1
    2894     8776     8779 1
    2895     5613     5616 1
    2896     5245     5248 1
    2897     2576     2579 1
    2898     4538     4541 1
    2899     6833     6835 1
    2900     5638     5640 1
    2901     5913     5915 1
    2902     5882     5884 1
    2903     2671     2673 1
    2904     2634     2635 1
    2905     5961     5962 1
    2906     1840     1841 1
    2907     2737     2740 1
    2908     8389     8391 1
    2909     3532     3534 1
    2910     6774     6776 1
    2911     5039     5041 1
    2912     8125     8126 1
    2913     7396     7397 1
    2914     3683     3686 1
    2915     8230     8172 1
    2916     1440     1443 1
    2917     6768     6771 1
    2918     2445     2439 1
    2919     6082     6083 1
    2920     1115     1118 1
    2921      443      444 1
    2922     1767     1770 1
    2923     5984     5987 1
    2924     9151     9154 1
    2925     5539     5548 1
    2926     5456     5459 1
    2927     1610     1613 1
    2928     7234     7237 1
    2929     7198     7199 1
    2930     6607     6608 1
    2931     7702     7703 1
    2932     8122     8125 1
    2933     7834     7835 1
    2934     7153     7154 1
    2935     2001     1998 1
    2936     4018     4020 1
    2937     7290     7292 1
    2938     5829     5828 1
    2939      402      399 1
    2940      843      846 1
    2941     7366     7369 1
    2942     7082     7083 1
    2943     6447     6448 1
    2944      208      209 1
    2945     1522     1520 1
    2946     8044     8045 1
    2947     8548     8549 1
    2948    10060    10061 1
    2949     9556     9557 1
    2950     6360     6361 1
    2951     6329     6330 1
    2952     4656     4657 1
    2953     7693     7690 1
    2954     9961     9964 1
    2955     3085     3088 1
    2956     5958     5961 1
    2957     5323     5326 1
    2958     8701     8703 1
    2959     2420     2422 1
    2960    10213    10215 1
    2961     8197     8199 1
    2962     8605     8608 1
    2963     5354     5357 1
    2964     4719     4722 1
    2965     9514     9516 1
    2966     8506     8508 1
    2967     9010     9012 1
    2968    10018    10020 1
    2969     5427     5421 1
    2970     1227     1228 1
    2971     7816     7813 1
    2972     5282     5283 1
    2973     1295     1296 1
    2974     1433     1430 1
    2975     7171     7174 1
    2976     3094     3097 1
    2977     5616     5617 1
    2978     5647     5648 1
    2979     3977     3986 1
    2980      582      583 1
    2981     6620     6621 1
    2982     7046     7049 1
    2983     7420     7422 1
    2984     6604     6606 1
    2985     2239     2241 1
    2986     8203     8205 1
    2987     8707     8709 1
    2988     6910     6912 1
    2989     6131     6137 1
    2990    10201    10204 1
    2991     6342     6345 1
    2992     3595     3598 1
    2993     3045     3048 1
    2994     8515     8518 1
    2995     7282     7285 1
    2996    10117    10119 1
    2997     4529     4531 1
    2998     3931     3932 1
    2999      370      368 1
    3000     9583     9585 1
    3001     1368     1366 1
    3002    10087    10089 1
    3003     8575     8577 1
    3004     7816     7817 1
    3005     8254     8256 1
    3006     7963     7965 1
    3007     5293     5295 1
    3008     3175     3176 1
    3009     7750     7752 1
    3010      362      364 1
    3011     2934     2936 1
    3012     2903     2905 1
    3013     3453     3455 1
    3014     2628     2630 1
    3015     7903     7905 1
    3016      739      738 1
    3017     3082     3084 1
    3018     6091     6093 1
    3019     3357     3359 1
    3020     2300     2302 1
    3021     3134     3136 1
    3022     3218     3221 1
    3023     8332     8335 1
    3024     6508     6509 1
    3025     8257     8259 1
    3026     6233     6234 1
    3027     4132     4119 1
    3028    10054    10055 1
    3029     8761     8763 1
    3030     9769     9771 1
    3031       57       58 1
    3032     8542     8543 1
    3033     7969     7970 1
    3034     4616     4617 1
    3035     1735     1736 1
    3036     5842     5843 1
    3037     9067     9068 1
    3038     6991     6992 1
    3039     7465     7466 1
    3040     6178     6179 1
    3041     8278     8279 1
    3042     5406     5407 1
    3043     9790     9791 1
    3044     3693     3702 1
    3045     7381     7384 1
    3046     9721     9722 1
    3047     3996     4000 1
    3048     5686     5689 1
    3049     2214     2217 1
    3050      652      655 1
    3051     2683     2684 1
    3052     3508     3509 1
    3053     1816     1817 1
    3054     5662     5663 1
    3055     3414     3409 1
    3056     4499     4502 1
    3057     2079     2076 1
    3058     7993     7996 1
    3059      794      797 1
    3060     8374     8371 1
    3061     7369     7371 1
    3062     1146     1147 1
    3063      184      185 1
    3064     3212     3214 1
    3065     8569     8572 1
    3066     8344     8347 1
    3067     2375     2377 1
    3068      465      467 1
    3069      634      631 1
    3070     2894     2896 1
    3071     2205     2202 1
    3072     4299     4302 1
    3073     6363     6366 1
    3074     2761     2764 1
    3075     9142     9144 1
    3076     1300     1295 1
    3077      810      812 1
    3078     1247     1245 1
    3079      964      961 1
    3080     8659     8660 1
    3081     4842     4829 1
    3082       20       21 1
    3083     7459     7460 1
    3084     6949     6950 1
    3085     5850     5851 1
    3086     8122     8124 1
    3087     8377     8380 1
    3088     9889     9892 1
    3089     8311     8313 1
    3090     7807     7809 1
    3091     8815     8817 1
    3092     6404     6405 1
    3093     7097     7099 1
    3094      251      252 1
    3095     5894     5897 1
    3096     5314     5317 1
    3097     6444     6447 1
    3098     6979     6983 1
    3099      384      381 1
    3100     9976     9978 1
    3101     1640     1642 1
    3102     4607     4609 1
    3103     4665     4666 1
    3104     3149     3150 1
    3105      312      313 1
    3106     3317     3318 1
    3107     2393     2390 1
    3108     2289     2290 1
    3109      220      217 1
    3110     1320     1322 1
    3111     7960     7957 1
    3112     5928     5929 1
    3113     3002     3003 1
    3114     5103     5104 1
    3115     2447     2448 1
    3116     8071     8072 1
    3117     4700     4702 1
    3118      405      406 1
    3119     3810     3811 1
    3120     1178     1180 1
    3121     5502     5505 1
    3122     5471     5474 1
    3123     3541     3544 1
    3124     6157     6158 1
    3125      640      642 1
    3126     6134     6136 1
    3127     6354     6356 1
    3128     6323     6325 1
    3129     3263     3266 1
    3130     1698     1700 1
    3131     2556     2553 1
    3132     1979     1981 1
    3133      692      694 1
    3134      588      591 1
    3135     6960     6962 1
    3136     7073     7076 1
    3137     7906     7908 1
    3138      776      778 1
    3139     1097     1099 1
    3140     1066     1068 1
    3141      912      913 1
    3142     5296     5297 1
    3143     6804     6806 1
    3144      109      111 1
    3145     1455     1448 1
    3146     8857     8858 1
    3147     4746     4747 1
    3148     5381     5382 1
    3149     9736     9738 1
    3150     9232     9234 1
    3151     1656     1658 1
    3152     2958     2960 1
    3153     8224     8226 1
    3154     7312     7315 1
    3155     2462     2465 1
    3156     5903     5905 1
    3157     3283     3285 1
    3158     5299     5301 1
    3159     2918     2921 1
    3160     2483     2486 1
    3161     7456     7459 1
    3162     6946     6949 1
    3163     2770     2773 1
    3164     2996     2999 1
    3165     9802     9805 1
    3166     8011     8014 1
    3167     4124     4119 1
    3168      822      824 1
    3169     4456     4458 1
    3170     3575     3577 1
    3171     9037     9039 1
    3172     4335     4337 1
    3173     6302     6303 1
    3174     3212     3213 1
    3175     6978     6979 1
    3176     4958     4959 1
    3177     8881     8884 1
    3178     6030     6031 1
    3179     1909     1910 1
    3180     9376     9377 1
    3181     2181     2183 1
    3182     5236     5237 1
    3183    10249    10250 1
    3184     6058     6060 1
    3185     7729     7730 1
    3186     9745     9746 1
    3187     3126     3128 1
    3188     8676     8679 1
    3189      423      426 1
    3190    10188    10191 1
    3191     1088     1085 1
    3192     7384     7387 1
    3193     6574     6575 1
    3194     7219     7220 1
    3195     4076     4077 1
    3196     6024     6025 1
    3197     3662     3659 1
    3198     7073     7075 1
    3199     2686     2689 1
    3200     9394     9397 1
    3201     6659     6656 1
    3202     3767     3769 1
    3203     5203     5206 1
    3204     1593     1590 1
    3205     4459     4462 1
    3206     4209     4212 1
    3207     3299     3302 1
    3208     3795     3797 1
    3209     7990     7992 1
    3210      507      508 1
    3211     1767     1764 1
    3212     1121     1122 1
    3213     6650     6653 1
    3214     2254     2257 1
    3215     4036     4039 1
    3216     9211     9214 1
    3217     3428     3429 1
    3218     9715     9718 1
    3219     9988     9989 1
    3220     6000     6003 1
    3221     2508     2509 1
    3222     7711     7714 1
    3223     8359     8302 1
    3224     5474     5476 1
    3225     6514     6515 1
    3226     6959     6960 1
    3227     6520     6522 1
    3228     4816     4818 1
    3229     3468     3470 1
    3230     3380     3378 1
    3231     1863     1860 1
    3232     9637     9640 1
    3233    10141    10144 1
    3234     3575     3581 1
    3235     7861     7863 1
    3236     4175     4177 1
    3237     5974     5976 1
    3238     5816     5819 1
    3239     8137     8140 1
    3240     8794     8795 1
    3241     1915     1917 1
    3242     5248     5250 1
    3243     2221     2223 1
    3244     2260     2257 1
    3245     4882     4884 1
    3246     5438     5440 1
    3247     7462     7464 1
    3248     4577     4579 1
    3249     9619     9620 1
    3250     9490     9491 1
    3251     8107     8108 1
    3252     5329     5330 1
    3253     5571     5572 1
    3254     2019     2020 1
    3255     5251     5254 1
    3256     2483     2484 1
    3257     4834     4837 1
    3258     6822     6823 1
    3259     9553     9495 1
    3260     8041     7983 1
    3261     1137     1142 1
    3262     8884     8886 1
    3263     4946     4943 1
    3264     3854     3858 1
    3265     9631     9634 1
    3266    10135    10138 1
    3267     3702     3705 1
    3268     7216     7217 1
    3269     1196     1197 1
    3270     4042     4043 1
    3271     5569     5570 1
    3272     5154     5155 1
    3273     2282     2283 1
    3274     2547     2548 1
    3275     5674     5675 1
    3276     6279     6280 1
    3277     9829     9830 1
    3278     4731     4734 1
    3279     2967     2970 1
    3280     5248     5251 1
    3281     5462     5465 1
    3282     1011     1012 1
    3283     1314     1315 1
    3284     7621     7623 1
    3285     2233     2235 1
    3286     2650     2653 1
    3287     9472     9475 1
    3288    10222    10225 1
    3289     4659     4662 1
    3290     7702     7705 1
    3291     7789     7731 1
    3292     8797     8739 1
    3293     7082     7084 1
    3294     6447     6449 1
    3295     1272     1273 1
    3296     7657     7658 1
    3297      260      261 1
    3298     8671     8668 1
    3299    10183    10180 1
    3300     1744     1743 1
    3301     1936     1877 1
    3302     9037     9040 1
    3303     5508     5510 1
    3304     1202     1204 1
    3305     5477     5479 1
    3306     2622     2625 1
    3307       48       51 1
    3308      970      973 1
    3309     9544     9546 1
    3310     8032     8034 1
    3311      323      324 1
    3312     7003     7004 1
    3313     5384     5385 1
    3314      924      925 1
    3315     1579     1580 1
    3316     5616     5618 1
    3317     5647     5649 1
    3318     6465     6466 1
    3319     4157     4158 1
    3320     2069     2070 1
    3321     6258     6259 1
    3322     8761     8758 1
    3323    10231    10233 1
    3324     8719     8721 1
    3325     1432     1430 1
    3326     4998     5000 1
    3327     4403     4412 1
    3328     8701     8698 1
    3329      743      744 1
    3330     1767     1769 1
    3331     9532     9534 1
    3332    10036    10038 1
    3333     9028     9030 1
    3334     6523     6525 1
    3335     3443     3436 1
    3336     3931     3934 1
    3337     4819     4821 1
    3338     9658     9661 1
    3339      544      546 1
    3340     3175     3177 1
    3341     7816     7818 1
    3342     4728     4731 1
    3343      873      877 1
    3344     2557     2558 1
    3345     8410     8413 1
    3346      220      221 1
    3347     7885     7887 1
    3348     8623     8624 1
    3349      801      802 1
    3350     8629     8630 1
    3351     8119     8120 1
    3352     9637     9638 1
    3353     7900     7901 1
    3354    10141    10142 1
    3355     3850     3848 1
    3356     9558     9560 1
    3357     9054     9056 1
    3358     5616     5619 1
    3359    10062    10064 1
    3360     3363     3365 1
    3361     8641     8642 1
    3362     5406     5408 1
    3363     8278     8280 1
    3364     3728     3725 1
    3365    10153    10154 1
    3366     9649     9650 1
    3367     9790     9792 1
    3368     7030     7031 1
    3369      813      814 1
    3370     2045     2042 1
    3371     5583     5586 1
    3372     6480     6421 1
    3373     8802     8803 1
    3374     9306     9307 1
    3375     3634     3635 1
    3376     8113     8115 1
    3377    10129    10131 1
    3378     4378     4379 1
    3379     9670     9672 1
    3380     8662     8664 1
    3381     8971     8973 1
    3382     5571     5574 1
    3383     1487     1486 1
    3384      900      902 1
    3385      350      352 1
    3386     6429     6432 1
    3387     4725     4728 1
    3388     5650     5653 1
    3389     9004     9007 1
    3390      918      915 1
    3391     9193     9195 1
    3392     8689     8691 1
    3393     9697     9699 1
    3394     5517     5519 1
    3395     4369     4371 1
    3396     5792     5794 1
    3397     5761     5763 1
    3398     3625     3627 1
    3399     4103     4105 1
    3400     3390     3392 1
    3401     1930     1932 1
    3402     3819     3820 1
    3403     4305     4306 1
    3404     7288     7231 1
    3405     6009     6010 1
    3406     3964     3967 1
    3407      745      743 1
    3408     7600     7542 1
    3409     1051     1054 1
    3410     8155     8157 1
    3411     1563     1576 1
    3412     4139     4143 1
    3413      607      609 1
    3414     9445     9447 1
    3415     4311     4313 1
    3416    10171    10174 1
    3417      804      805 1
    3418      507      504 1
    3419     9163     9166 1
    3420     7105     7106 1
    3421     7164     7165 1
    3422     1529     1531 1
    3423     6810     6811 1
    3424     2329     2330 1
    3425     7668     7669 1
    3426     7085     7086 1
    3427     4012     4015 1
    3428     1239     1242 1
    3429     5659     5661 1
    3430     1150     1152 1
    3431     9487     9490 1
    3432     4172     4175 1
    3433     3267     3268 1
    3434     2293     2297 1
    3435     6565     6567 1
    3436     7522     7523 1
    3437     6675     6676 1
    3438     4758     4761 1
    3439     6913     6916 1
    3440     2449     2447 1
    3441     8857     8860 1
    3442      589      593 1
    3443     5690     5691 1
    3444     5928     5930 1
    3445     3002     3004 1
    3446     5103     5105 1
    3447     8071     8073 1
    3448     5187     5188 1
    3449     7432     7433 1
    3450     5218     5219 1
    3451     4154     4155 1
    3452     2305     2306 1
    3453     1402     1403 1
    3454     3731     3732 1
    3455     2737     2739 1
    3456     2544     2545 1
    3457     9265     9267 1
    3458     3840     3841 1
    3459     6018     6021 1
    3460     9346     9347 1
    3461     3499     3500 1
    3462     7285     7286 1
    3463      912      914 1
    3464     2424     2427 1
    3465     7159     7101 1
    3466     9619     9562 1
    3467     1492     1493 1
    3468     5480     5483 1
    3469     6925     6926 1
    3470     1976     1978 1
    3471     3320     3322 1
    3472     6922     6924 1
    3473     1891     1893 1
    3474     6702     6704 1
    3475     3057     3058 1
    3476     2868     2869 1
    3477     3088     3089 1
    3478     8452     8453 1
    3479     9964     9965 1
    3480     3570     3573 1
    3481     8991     8992 1
    3482     6281     6284 1
    3483     2265     2263 1
    3484     8701     8704 1
    3485    10213    10216 1
    3486     8197     8200 1
    3487     1326     1327 1
    3488     1405     1408 1
    3489      156      157 1
    3490     5196     5199 1
    3491     4128     4131 1
    3492     9124     9126 1
    3493     1616     1613 1
    3494     1761     1763 1
    3495     2396     2398 1
    3496     7067     7069 1
    3497     6517     6519 1
    3498      919      918 1
    3499     7479     7481 1
    3500     1004     1006 1
    3501     1828     1830 1
    3502     4160     4162 1
    3503     7813     7815 1
    3504     7132     7134 1
    3505     4764     4766 1
    3506     9451     9454 1
    3507     9955     9958 1
    3508     3048     3051 1
    3509      574      569 1
    3510     4009     4011 1
    3511     1508     1510 1
    3512     4980     4983 1
    3513     2090     2088 1
    3514     1535     1537 1
    3515     2307     2305 1
    3516     7000     7002 1
    3517     7542     7545 1
    3518     8353     8356 1
    3519     6725     6728 1
    3520     7085     7088 1
    3521     9865     9868 1
    3522     1462     1459 1
    3523     9667     9668 1
    3524     9163     9164 1
    3525    10171    10172 1
    3526     8023     8026 1
    3527      459      462 1
    3528     3777     3776 1
    3529     2520     2521 1
    3530     2300     2303 1
    3531     6091     6094 1
    3532     4024     4025 1
    3533     9829     9832 1
    3534     6332     6333 1
    3535      649      650 1
    3536     5209     5210 1
    3537     9424     9427 1
    3538     7516     7517 1
    3539     7633     7636 1
    3540     3193     3194 1
    3541     2069     2066 1
    3542     3224     3225 1
    3543      368      365 1
    3544      474      471 1
    3545     4490     4493 1
    3546     9379     9380 1
    3547     9883     9884 1
    3548     8875     8876 1
    3549     4387     4388 1
    3550     9946     9947 1
    3551      695      696 1
    3552     4628     4630 1
    3553     1260     1261 1
    3554     9436     9437 1
    3555     2589     2592 1
    3556     6296     6299 1
    3557     6913     6915 1
    3558     6882     6884 1
    3559     1329     1331 1
    3560     3613     3614 1
    3561     1456     1458 1
    3562     2060     2062 1
    3563     4783     4785 1
    3564     5937     5939 1
    3565     7777     7779 1
    3566     5906     5908 1
    3567      773      776 1
    3568      958      960 1
    3569     3656     3659 1
    3570     4928     4931 1
    3571     2535     2536 1
    3572     5268     5269 1
    3573     7402     7404 1
    3574     8065     8066 1
    3575     8569     8570 1
    3576      323      325 1
    3577     5450     5452 1
    3578     2865     2867 1
    3579     6879     6881 1
    3580     6142     6145 1
    3581     9607     9610 1
    3582     7579     7581 1
    3583      646      649 1
    3584     6861     6864 1
    3585     5242     5245 1
    3586     3619     3622 1
    3587     4057     4060 1
    3588     8794     8796 1
    3589     5218     5221 1
    3590     8611     8612 1
    3591     4033     4036 1
    3592     1752     1754 1
    3593     9484     9486 1
    3594      127      130 1
    3595     2375     2378 1
    3596     2894     2897 1
    3597     1866     1870 1
    3598     2674     2676 1
    3599     2984     2986 1
    3600     5381     5384 1
    3601     9235     9238 1
    3602     2813     2816 1
    3603     3622     3624 1
    3604     1233     1234 1
    3605     5148     5149 1
    3606     5783     5784 1
    3607     1508     1509 1
    3608     2731     2734 1
    3609     8629     8632 1
    3610     9034     9037 1
    3611     6293     6295 1
    3612     7426     7428 1
    3613     1982     1984 1
    3614     1653     1655 1
    3615     7873     7876 1
    3616       11       10 1
    3617     6897     6899 1
    3618      254      256 1
    3619      625      627 1
    3620     6583     6585 1
    3621       28       30 1
    3622     6549     6550 1
    3623      517      520 1
    3624     8865     8866 1
    3625     8101     8102 1
    3626     9873     9874 1
    3627     2442     2443 1
    3628     9613     9614 1
    3629     5335     5336 1
    3630     1955     1956 1
    3631     1813     1814 1
    3632     7306     7307 1
    3633    10105    10106 1
    3634      967      968 1
    3635     2400     2399 1
    3636     1492     1489 1
    3637      553      554 1
    3638     5282     5285 1
    3639      607      604 1
    3640     5897     5900 1
    3641     1045     1042 1
    3642     7567     7570 1
    3643     7993     7995 1
    3644      640      643 1
    3645     5441     5443 1
    3646     6323     6326 1
    3647     6134     6137 1
    3648     6076     6078 1
    3649     6354     6357 1
    3650      187      184 1
    3651     5511     5513 1
    3652     4770     4771 1
    3653     5480     5482 1
    3654     2846     2847 1
    3655     2712     2714 1
    3656     2915     2917 1
    3657     9046     9049 1
    3658     8487     8489 1
    3659     9999    10001 1
    3660     2314     2317 1
    3661      790      788 1
    3662     5493     5496 1
    3663     7948     7950 1
    3664    10243    10245 1
    3665     9871     9814 1
    3666      877      879 1
    3667     9235     9237 1
    3668     9928     9929 1
    3669     7912     7913 1
    3670     8416     8417 1
    3671     3422     3409 1
    3672     4157     4159 1
    3673     8863     8806 1
    3674     2069     2071 1
    3675     6465     6467 1
    3676     7249     7250 1
    3677     2792     2795 1
    3678     4109     4112 1
    3679      193      194 1
    3680     3483     3486 1
    3681     8617     8619 1
    3682     9625     9627 1
    3683     9064     9065 1
    3684      834      836 1
    3685     9979     9981 1
    3686      541      544 1
    3687     7765     7768 1
    3688     7171     7173 1
    3689     7357     7359 1
    3690     5290     5293 1
    3691     1462     1464 1
    3692     7108     7111 1
    3693     8572     8575 1
    3694     9580     9583 1
    3695    10084    10087 1
    3696     6302     6299 1
    3697     6994     6997 1
    3698      946      949 1
    3699     6904     6907 1
    3700     7741     7742 1
    3701     7416     7419 1
    3702     3981     3978 1
    3703     2303     2304 1
    3704     3592     3593 1
    3705     6094     6095 1
    3706     6888     6889 1
    3707     4838     4841 1
    3708     7783     7784 1
    3709     2601     2602 1
    3710     9115     9116 1
    3711     7765     7766 1
    3712    10123    10124 1
    3713     5879     5880 1
    3714    10183    10184 1
    3715     8671     8672 1
    3716     5842     5845 1
    3717     5453     5455 1
    3718     9679     9680 1
    3719     9121     9122 1
    3720     7327     7328 1
    3721       66       67 1
    3722     6508     6511 1
    3723     2144     2131 1
    3724     6233     6236 1
    3725       57       60 1
    3726     1263     1264 1
    3727     2150     2153 1
    3728     6644     6646 1
    3729     8941     8943 1
    3730     4580     4582 1
    3731     7933     7935 1
    3732     3042     3044 1
    3733     1888     1890 1
    3734     5644     5647 1
    3735     1831     1828 1
    3736     4030     4032 1
    3737     2523     2525 1
    3738      190      191 1
    3739     2592     2595 1
    3740     1292     1294 1
    3741     1208     1209 1
    3742     1239     1240 1
    3743     5514     5515 1
    3744     3341     3342 1
    3745     3239     3240 1
    3746     6725     6726 1
    3747     8353     8354 1
    3748     5619     5621 1
    3749     7345     7346 1
    3750     9865     9866 1
    3751     5015     5017 1
    3752     1985     1987 1
    3753     9961     9963 1
    3754     3085     3087 1
    3755     6900     6902 1
    3756     6986     6988 1
    3757     1448     1451 1
    3758     3341     3344 1
    3759     4604     4607 1
    3760      144      143 1
    3761     5906     5909 1
    3762     2514     2517 1
    3763     3354     3356 1
    3764     4505     4508 1
    3765     5659     5662 1
    3766    10093    10096 1
    3767     6728     6731 1
    3768     1677     1680 1
    3769     5305     5306 1
    3770     4755     4756 1
    3771     4060     4063 1
    3772      483      484 1
    3773     9754     9755 1
    3774     5132     5134 1
    3775     8242     8243 1
    3776     2486     2489 1
    3777     2854     2857 1
    3778      503      501 1
    3779      315      316 1
    3780     2770     2771 1
    3781     2495     2496 1
    3782     4308     4309 1
    3783     2801     2802 1
    3784     7207     7208 1
    3785     5974     5977 1
    3786     2988     2989 1
    3787     3405     3406 1
    3788     9691     9692 1
    3789     5755     5756 1
    3790     3338     3339 1
    3791     2860     2861 1
    3792     4635     4637 1
    3793     4604     4606 1
    3794    10195    10196 1
    3795     5555     5557 1
    3796     9187     9188 1
    3797     7957     7959 1
    3798     4444     4445 1
    3799     9936     9937 1
    3800     2021     2023 1
    3801     7717     7720 1
    3802     1251     1252 1
    3803     7105     7107 1
    3804     5966     5969 1
    3805     5855     5858 1
    3806     5200     5202 1
    3807     5919     5920 1
    3808     7558     7559 1
    3809     3827     3825 1
    3810     4849     4853 1
    3811     1894     1895 1
    3812     2584     2585 1
    3813     1934     1937 1
    3814     8215     8217 1
    3815     9223     9225 1
    3816     9727     9729 1
    3817     2292     2294 1
    3818     2498     2501 1
    3819     1752     1749 1
    3820     9406     9409 1
    3821     6632     6635 1
    3822      538      535 1
    3823     7333     7336 1
    3824     3393     3394 1
    3825    10009    10010 1
    3826     9505     9506 1
    3827     9001     9002 1
    3828     6940     6943 1
    3829     1112     1115 1
    3830     5166     5169 1
    3831     3986     3989 1
    3832      909      906 1
    3833     4054     4057 1
    3834      236      237 1
    3835     4967     4968 1
    3836     5163     5164 1
    3837     6311     6312 1
    3838     9409     9410 1
    3839     3215     3218 1
    3840     7735     7738 1
    3841     6375     6378 1
    3842     3308     3311 1
    3843     7621     7622 1
    3844     6910     6913 1
    3845     9646     9647 1
    3846     8134     8135 1
    3847     4218     4221 1
    3848     9340     9341 1
    3849    10147    10148 1
    3850      807      808 1
    3851     1597     1590 1
    3852     9139     9140 1
    3853     9643     9644 1
    3854      633      631 1
    3855     3149     3145 1
    3856     9337     9338 1
    3857     3882     3884 1
    3858     9781     9784 1
    3859      556      553 1
    3860      399      401 1
    3861     5126     5128 1
    3862     8836     8838 1
    3863     2308     2310 1
    3864     7828     7830 1
    3865     9340     9342 1
    3866     6514     6516 1
    3867     3187     3189 1
    3868     9844     9846 1
    3869      711      712 1
    3870     7147     7149 1
    3871     3919     3918 1
    3872     3714     3712 1
    3873     2715     2716 1
    3874     4613     4615 1
    3875     1921     1923 1
    3876     4644     4646 1
    3877     8185     8187 1
    3878     4338     4340 1
    3879     2740     2742 1
    3880     2190     2192 1
    3881      504      501 1
    3882     3862     3865 1
    3883      428      429 1
    3884     6018     6019 1
    3885      677      678 1
    3886     6610     6611 1
    3887     1897     1898 1
    3888     8335     8336 1
    3889      988      989 1
    3890     9847     9848 1
    3891     4285     4286 1
    3892     8839     8840 1
    3893     3399     3400 1
    3894     6021     6024 1
    3895     3952     3954 1
    3896      375      377 1
    3897     2695     2697 1
    3898     3720     3727 1
    3899     3245     3247 1
    3900     5027     5029 1
    3901     6826     6828 1
    3902     4018     4021 1
    3903     2779     2780 1
    3904     7720     7721 1
    3905     6656     6657 1
    3906     6021     6022 1
    3907     6070     6073 1
    3908     6589     6592 1
    3909     4082     4085 1
    3910     2292     2296 1
    3911     9697     9698 1
    3912      329      326 1
    3913     4002     4001 1
    3914      578      581 1
    3915     6076     6079 1
    3916     5342     5345 1
    3917     4106     4108 1
    3918     2789     2791 1
    3919     4511     4513 1
    3920     7123     7125 1
    3921     2338     2340 1
    3922      290      292 1
    3923     2708     2710 1
    3924    10099    10101 1
    3925     7300     7302 1
    3926     3163     3165 1
    3927     7804     7806 1
    3928     2471     2474 1
    3929     4583     4586 1
    3930     1646     1643 1
    3931     3869     3862 1
    3932     3036     3039 1
    3933     7285     7227 1
    3934     3148     3144 1
    3935     8374     8375 1
    3936      825      826 1
    3937     9886     9887 1
    3938     6749     6746 1
    3939     6937     6938 1
    3940     7447     7448 1
    3941     4770     4772 1
    3942     2846     2848 1
    3943     8440     8441 1
    3944     4393     4394 1
    3945     1335     1336 1
    3946     1701     1702 1
    3947     1737     1738 1
    3948     4912     4913 1
    3949     8908     8911 1
    3950     9412     9415 1
    3951     6415     6421 1
    3952     2456     2458 1
    3953     7222     7224 1
    3954     3902     3900 1
    3955     4212     4213 1
    3956     1795     1796 1
    3957     5574     5575 1
    3958     4505     4506 1
    3959     4692     4693 1
    3960    10093    10094 1
    3961     8581     8582 1
    3962     8065     8067 1
    3963     8569     8571 1
    3964     1883     1882 1
    3965     7129     7130 1
    3966     7810     7811 1
    3967     2619     2620 1
    3968     1825     1826 1
    3969       45       46 1
    3970     2562     2563 1
    3971     4572     4573 1
    3972     3571     3575 1
    3973     1792     1795 1
    3974     3972     3970 1
    3975     6194     6197 1
    3976     1523     1524 1
    3977     5369     5370 1
    3978     5832     5834 1
    3979     2526     2528 1
    3980     6647     6649 1
    3981     6891     6893 1
    3982     1187     1189 1
    3983      656      658 1
    3984     2218     2220 1
    3985     1868     1863 1
    3986     7666     7667 1
    3987     9871     9872 1
    3988     9253     9255 1
    3989      152      154 1
    3990      927      928 1
    3991     6258     6260 1
    3992     8749     8751 1
    3993     5302     5303 1
    3994     6731     6732 1
    3995     8863     8864 1
    3996     2961     2964 1
    3997     4042     4045 1
    3998     7789     7791 1
    3999     1088     1091 1
    4000     2184     2186 1
    4001    10114    10115 1
    4002     6230     6231 1
    4003     4526     4527 1
    4004     3063     3066 1
    4005     6061     6064 1
    4006     6061     6063 1
    4007    10168    10170 1
    4008     9664     9666 1
    4009     5008     5006 1
    4010     2036     2039 1
    4011     9064     9067 1
    4012     8560     8563 1
    4013     6792     6795 1
    4014      846      848 1
    4015     7552     7554 1
    4016     8770     8771 1
    4017     2656     2659 1
    4018     2940     2941 1
    4019     9274     9275 1
    4020     1217     1218 1
    4021     9703     9704 1
    4022      634      635 1
    4023     3141     3142 1
    4024     3381     3382 1
    4025     4363     4364 1
    4026     1211     1212 1
    4027     3496     3497 1
    4028     5154     5151 1
    4029     5569     5566 1
    4030     7783     7785 1
    4031     9910     9911 1
    4032     3027     3028 1
    4033     8398     8399 1
    4034     8902     8903 1
    4035     4344     4345 1
    4036     8578     8579 1
    4037     6659     6661 1
    4038     5922     5925 1
    4039     7306     7308 1
    4040    10105    10107 1
    4041      967      969 1
    4042     4848     4849 1
    4043     1187     1184 1
    4044     6249     6262 1
    4045     5610     5612 1
    4046     7696     7697 1
    4047     6601     6602 1
    4048      869      870 1
    4049     9904     9906 1
    4050     4707     4711 1
    4051     7948     7951 1
    4052     7240     7243 1
    4053     5836     5837 1
    4054     1440     1441 1
    4055     2828     2829 1
    4056     9979     9980 1
    4057     6070     6071 1
    4058     4335     4336 1
    4059     6039     6040 1
    4060     1288     1279 1
    4061     1949     1950 1
    4062      662      663 1
    4063     7618     7620 1
    4064     8905     8907 1
    4065     2148     2147 1
    4066     3761     3764 1
    4067     4949     4950 1
    4068     8557     8559 1
    4069     8053     8055 1
    4070     1707     1706 1
    4071     7549     7552 1
    4072     1773     1776 1
    4073     4450     4453 1
    4074     4903     4904 1
    4075     5345     5348 1
    4076      417      420 1
    4077     3157     3158 1
    4078     8557     8560 1
    4079     5943     5945 1
    4080     1967     1968 1
    4081     3036     3037 1
    4082     8431     8432 1
    4083     9439     9440 1
    4084     5036     5033 1
    4085      992      991 1
    4086     5544     5547 1
    4087     4257     4260 1
    4088     1401     1399 1
    4089     9766     9767 1
    4090     1514     1515 1
    4091     3218     3219 1
    4092     2393     2394 1
    4093     1843     1844 1
    4094     6638     6640 1
    4095     3121     3123 1
    4096     3054     3057 1
    4097     6381     6384 1
    4098     5701     5705 1
    4099     2169     2166 1
    4100     5981     5986 1
    4101       88       91 1
    4102     7276     7277 1
    4103     5351     5354 1
    4104     1477     1474 1
    4105     6369     6371 1
    4106     3928     3931 1
    4107     1190     1192 1
    4108     2177     2175 1
    4109     6392     6391 1
    4110      840      837 1
    4111     3725     3727 1
    4112     1674     1677 1
    4113       75       76 1
    4114     9577     9578 1
    4115     8599     8602 1
    4116     8095     8098 1
    4117     5317     5320 1
    4118     7088     7090 1
    4119     8302     8304 1
    4120     5109     5111 1
    4121     2363     2365 1
    4122     4181     4184 1
    4123     2695     2698 1
    4124     6826     6829 1
    4125     6604     6607 1
    4126     1640     1643 1
    4127     9976     9979 1
    4128     4607     4610 1
    4129     4740     4737 1
    4130     1891     1894 1
    4131     8470     8473 1
    4132     7747     7748 1
    4133     7243     7244 1
    4134     3248     3249 1
    4135     6336     6337 1
    4136     7318     7320 1
    4137     9154     9156 1
    4138     9658     9660 1
    4139     7513     7514 1
    4140     9850     9852 1
    4141     1137     1146 1
    4142     1042     1039 1
    4143      196      193 1
    4144     2601     2603 1
    4145     6345     6347 1
    4146     6332     6335 1
    4147     3076     3077 1
    4148     3045     3046 1
    4149     4483     4484 1
    4150     7804     7807 1
    4151     2976     2977 1
    4152     7621     7624 1
    4153     5583     5584 1
    4154      381      382 1
    4155     2097     2098 1
    4156     8029     8032 1
    4157     2269     2270 1
    4158     1990     1991 1
    4159     1014     1015 1
    4160     8686     8688 1
    4161     2266     2268 1
    4162     4085     4087 1
    4163       94       97 1
    4164     9694     9696 1
    4165     1631     1633 1
    4166     6481     6483 1
    4167     3372     3374 1
    4168     4564     4567 1
    4169     1069     1072 1
    4170     3634     3637 1
    4171     8802     8805 1
    4172     9306     9309 1
    4173     9958     9961 1
    4174     1094     1095 1
    4175     4541     4544 1
    4176     7783     7780 1
    4177     1372     1375 1
    4178     1199     1200 1
    4179     4320     4321 1
    4180     7723     7724 1
    4181     7456     7453 1
    4182     4351     4352 1
    4183     5230     5231 1
    4184     7444     7445 1
    4185    10186    10187 1
    4186     8674     8675 1
    4187     9178     9179 1
    4188     6369     6372 1
    4189     1492     1494 1
    4190     1804     1801 1
    4191     3604     3607 1
    4192     1714     1717 1
    4193     6045     6047 1
    4194     1721     1723 1
    4195     8386     8389 1
    4196     8227     8224 1
    4197     1456     1459 1
    4198     5937     5940 1
    4199     2060     2063 1
    4200     4783     4786 1
    4201      958      961 1
    4202     1014     1016 1
    4203     9784     9785 1
    4204     7768     7769 1
    4205     3897     3894 1
    4206     3338     3341 1
    4207     2743     2746 1
    4208     8323     8324 1
    4209     9568     9571 1
    4210      903      906 1
    4211     5088     5091 1
    4212     8056     8059 1
    4213     4348     4350 1
    4214     2726     2729 1
    4215     4453     4455 1
    4216     2946     2948 1
    4217     1368     1309 1
    4218     3643     3641 1
    4219     6668     6671 1
    4220     9495     9497 1
    4221     7983     7985 1
    4222     8059     8062 1
    4223     6499     6501 1
    4224     1436     1434 1
    4225     9571     9574 1
    4226     6894     6897 1
    4227     6290     6293 1
    4228     2773     2776 1
    4229      866      867 1
    4230     7177     7178 1
    4231     3677     3674 1
    4232     2680     2683 1
    4233     1153     1150 1
    4234     7147     7148 1
    4235     7753     7754 1
    4236     5931     5933 1
    4237     8676     8678 1
    4238    10188    10190 1
    4239      423      425 1
    4240      115      117 1
    4241     2782     2785 1
    4242     5532     5533 1
    4243     5656     5659 1
    4244     4622     4623 1
    4245     7876     7877 1
    4246     3916     3915 1
    4247     4280     4284 1
    4248      139      136 1
    4249     8692     8694 1
    4250     3752     3749 1
    4251     9466     9469 1
    4252      801      804 1
    4253     2822     2825 1
    4254     7426     7429 1
    4255      254      257 1
    4256     1306     1309 1
    4257     8839     8841 1
    4258     8641     8644 1
    4259     9649     9652 1
    4260    10153    10156 1
    4261      813      816 1
    4262     7237     7238 1
    4263     2131     2132 1
    4264     6357     6359 1
    4265     6326     6328 1
    4266     6632     6634 1
    4267      643      645 1
    4268     7192     7194 1
    4269     9145     9147 1
    4270     5018     5019 1
    4271     7867     7868 1
    4272     7438     7439 1
    4273     5193     5194 1
    4274     3433     3434 1
    4275     2704     2706 1
    4276     7927     7929 1
    4277     8935     8937 1
    4278     4384     4386 1
    4279     9943     9945 1
    4280     2689     2690 1
    4281     6366     6367 1
    4282     3428     3430 1
    4283     2508     2510 1
    4284     9988     9990 1
    4285     7273     7275 1
    4286      596      603 1
    4287     1737     1739 1
    4288     7489     7492 1
    4289     3360     3361 1
    4290     2450     2451 1
    4291     9700     9703 1
    4292     4218     4219 1
    4293     3616     3617 1
    4294     1637     1638 1
    4295     8965     8966 1
    4296     9973     9974 1
    4297     2462     2463 1
    4298     5824     5825 1
    4299     8991     8994 1
    4300     5864     5865 1
    4301     9643     9646 1
    4302     7052     7055 1
    4303     2973     2975 1
    4304     4480     4482 1
    4305     1480     1483 1
    4306     6552     6554 1
    4307     4172     4174 1
    4308       91       93 1
    4309     1915     1918 1
    4310     4882     4885 1
    4311     2221     2224 1
    4312      523      524 1
    4313      770      772 1
    4314     4157     4160 1
    4315     2647     2650 1
    4316     2069     2072 1
    4317     6465     6468 1
    4318     2032     2030 1
    4319     1323     1324 1
    4320     4798     4799 1
    4321     7591     7592 1
    4322    10114    10116 1
    4323     6230     6232 1
    4324     4526     4528 1
    4325     5486     5427 1
    4326     4706     4710 1
    4327     5239     5241 1
    4328     4360     4362 1
    4329     4329     4331 1
    4330     4764     4767 1
    4331        2        5 1
    4332     8779     8782 1
    4333     8424     8425 1
    4334     2937     2938 1
    4335    10048    10050 1
    4336     4254     4255 1
    4337      529      531 1
    4338      979      980 1
    4339      637      638 1
    4340     6435     6436 1
    4341     4097     4098 1
    4342     1220     1221 1
    4343     1538     1539 1
    4344     4199     4200 1
    4345     2882     2883 1
    4346     1593     1594 1
    4347     6771     6772 1
    4348      936      937 1
    4349     7999     8000 1
    4350     5036     5037 1
    4351     3529     3530 1
    4352     7753     7750 1
    4353     7612     7613 1
    4354     9076     9077 1
    4355     4496     4497 1
    4356     6200     6201 1
    4357     3683     3684 1
    4358     1785     1786 1
    4359     4274     4275 1
    4360     5166     5168 1
    4361     5045     5048 1
    4362     7104     7101 1
    4363     8287     8290 1
    4364     9295     9298 1
    4365     9388     9391 1
    4366     8791     8794 1
    4367     1665     1667 1
    4368     5351     5352 1
    4369     2024     2025 1
    4370     2459     2461 1
    4371     6855     6857 1
    4372     4082     4084 1
    4373     6749     6750 1
    4374     7873     7875 1
    4375     8026     8028 1
    4376     7657     7659 1
    4377     2665     2666 1
    4378     8995     8996 1
    4379     4329     4332 1
    4380     9913     9914 1
    4381     4807     4810 1
    4382     7321     7324 1
    4383     4299     4296 1
    4384     1637     1634 1
    4385     4360     4357 1
    4386     8401     8402 1
    4387     2930     2871 1
    4388     6178     6181 1
    4389    10027    10030 1
    4390     9523     9526 1
    4391     7129     7131 1
    4392     4572     4574 1
    4393     7810     7812 1
    4394     2619     2621 1
    4395     1825     1827 1
    4396     2562     2564 1
    4397       45       47 1
    4398     4483     4486 1
    4399     2891     2894 1
    4400     5943     5946 1
    4401     1082     1083 1
    4402     7909     7911 1
    4403     7345     7348 1
    4404     8074     8077 1
    4405     7663     7665 1
    4406     8497     8494 1
    4407      843      845 1
    4408     7879     7881 1
    4409     7375     7377 1
    4410     4641     4643 1
    4411     4885     4886 1
    4412     9700     9701 1
    4413     9196     9197 1
    4414     7101     7102 1
    4415     8692     8693 1
    4416     5764     5765 1
    4417     5795     5796 1
    4418     9508     9509 1
    4419     5305     5308 1
    4420     7996     7997 1
    4421     8500     8501 1
    4422     3648     3647 1
    4423     5858     5860 1
    4424     1547     1549 1
    4425     3202     3205 1
    4426     3447     3450 1
    4427     8928     8931 1
    4428     3326     3329 1
    4429     7282     7283 1
    4430     9432     9435 1
    4431     8515     8516 1
    4432     4009     4012 1
    4433     9220     9221 1
    4434     8212     8213 1
    4435    10228    10229 1
    4436     9724     9725 1
    4437     6410     6411 1
    4438     4115     4116 1
    4439     9652     9655 1
    4440     8869     8872 1
    4441     9877     9880 1
    4442     9256     9258 1
    4443     8752     8754 1
    4444     4838     4839 1
    4445     1776     1777 1
    4446      420      421 1
    4447     1532     1533 1
    4448     9400     9401 1
    4449     8896     8897 1
    4450     7150     7151 1
    4451     5398     5399 1
    4452     7831     7832 1
    4453     8101     8104 1
    4454     9613     9616 1
    4455     8623     8625 1
    4456     8119     8121 1
    4457     2442     2445 1
    4458     2453     2450 1
    4459     3693     3706 1
    4460     1093     1091 1
    4461     1014     1018 1
    4462     1559     1562 1
    4463     5221     5223 1
    4464    10234    10236 1
    4465      139      142 1
    4466     7939     7941 1
    4467     4586     4588 1
    4468     6533     6534 1
    4469     3103     3106 1
    4470     7180     7183 1
    4471     3942     3940 1
    4472     1448     1449 1
    4473     1407     1405 1
    4474     6529     6531 1
    4475     3799     3798 1
    4476     5746     5748 1
    4477     5777     5779 1
    4478     4073     4075 1
    4479     2924     2927 1
    4480     8686     8689 1
    4481     9694     9697 1
    4482     2692     2694 1
    4483      785      787 1
    4484     3517     3519 1
    4485     5024     5026 1
    4486     1582     1586 1
    4487     8689     8692 1
    4488     2868     2875 1
    4489     9697     9700 1
    4490     5792     5795 1
    4491     5761     5764 1
    4492     8140     8141 1
    4493     7357     7358 1
    4494     1187     1190 1
    4495     5517     5520 1
    4496     9091     9092 1
    4497     3928     3929 1
    4498      994      991 1
    4499     8713     8714 1
    4500     6024     6027 1
    4501     9766     9768 1
    4502     2121     2118 1
    4503     6546     6533 1
    4504      619      620 1
    4505      565      568 1
    4506     6462     6463 1
    4507     3730     3728 1
    4508     8179     8180 1
    4509     6580     6581 1
    4510      707      708 1
    4511     5274     5276 1
    4512     7951     7953 1
    4513     7276     7278 1
    4514     1183     1181 1
    4515     5526     5527 1
    4516     3439     3440 1
    4517     9577     9579 1
    4518       75       77 1
    4519     4535     4532 1
    4520     6514     6511 1
    4521     9625     9628 1
    4522     7225     7168 1
    4523     6557     6563 1
    4524     5424     5425 1
    4525     3196     3197 1
    4526     3227     3228 1
    4527     6989     6990 1
    4528     5919     5921 1
    4529     7558     7560 1
    4530     7645     7647 1
    4531     1408     1410 1
    4532     6870     6872 1
    4533     1680     1682 1
    4534     4251     4254 1
    4535     8323     8326 1
    4536     3245     3248 1
    4537     5027     5030 1
    4538      375      378 1
    4539      570      572 1
    4540     4064     4067 1
    4541      338      335 1
    4542     1689     1690 1
    4543     3613     3615 1
    4544     1127     1128 1
    4545     5424     5431 1
    4546     1039     1041 1
    4547     8616     8613 1
    4548     9778     9779 1
    4549     8266     8267 1
    4550     6623     6624 1
    4551     2825     2826 1
    4552     6067     6068 1
    4553     6036     6037 1
    4554     1437     1438 1
    4555     2653     2655 1
    4556     4520     4522 1
    4557     9100     9102 1
    4558     7834     7837 1
    4559     7153     7156 1
    4560     1668     1665 1
    4561     3631     3632 1
    4562     7390     7391 1
    4563     4375     4376 1
    4564     4613     4616 1
    4565     6317     6320 1
    4566     8917     8918 1
    4567     6042     6045 1
    4568     1718     1721 1
    4569     9925     9926 1
    4570     3439     3436 1
    4571     2202     2199 1
    4572     2085     2087 1
    4573    10090    10092 1
    4574     2424     2426 1
    4575     4196     4198 1
    4576     4502     4504 1
    4577     4227     4229 1
    4578     8046     8049 1
    4579     6392     6393 1
    4580     6680     6683 1
    4581     8626     8628 1
    4582     9337     9339 1
    4583     9565     9567 1
    4584     9982     9983 1
    4585      839      837 1
    4586     9928     9931 1
    4587     8416     8419 1
    4588     7912     7915 1
    4589     9802     9803 1
    4590     5861     5858 1
    4591     6281     6282 1
    4592     7960     7962 1
    4593     4638     4640 1
    4594     5067     5064 1
    4595     2746     2748 1
    4596     6867     6869 1
    4597     8011     8012 1
    4598     2550     2552 1
    4599     1848     1851 1
    4600     8392     8395 1
    4601     5558     5561 1
    4602     2362     2303 1
    4603     3480     3481 1
    4604     4224     4225 1
    4605     3743     3744 1
    4606      112      113 1
    4607     7324     7325 1
    4608     4535     4536 1
    4609     6919     6922 1
    4610     3033     3034 1
    4611     1175     1176 1
    4612     2758     2759 1
    4613      242      245 1
    4614      646      647 1
    4615     4444     4447 1
    4616     8785     8787 1
    4617     5387     5389 1
    4618     7399     7402 1
    4619     5571     5573 1
    4620     9946     9943 1
    4621     2260     2261 1
    4622     6943     6944 1
    4623     5345     5346 1
    4624     2992     2993 1
    4625     5949     5950 1
    4626     7588     7589 1
    4627     2005     2007 1
    4628     9940     9942 1
    4629     5206     5208 1
    4630     6085     6087 1
    4631     5940     5942 1
    4632     2063     2065 1
    4633      961      963 1
    4634     9067     9070 1
    4635     5264     5267 1
    4636      410      408 1
    4637     1106     1107 1
    4638      712      713 1
    4639     8974     8977 1
    4640     2816     2819 1
    4641     4323     4326 1
    4642     7306     7309 1
    4643    10105    10108 1
    4644      967      970 1
    4645     5484     5487 1
    4646     1280     1279 1
    4647      770      767 1
    4648      732      727 1
    4649     3638     3639 1
    4650     5230     5233 1
    4651     5018     5020 1
    4652      547      549 1
    4653     4048     4049 1
    4654     5351     5353 1
    4655     2024     2026 1
    4656     3983     3982 1
    4657     4668     4669 1
    4658     5462     5463 1
    4659     5493     5494 1
    4660     6372     6373 1
    4661      281      283 1
    4662     6749     6751 1
    4663     4387     4389 1
    4664      695      697 1
    4665     9946     9948 1
    4666     2842     2844 1
    4667     5233     5235 1
    4668     8539     8540 1
    4669     1937     1939 1
    4670     6027     6029 1
    4671     3663     3662 1
    4672     5255     5268 1
    4673     7375     7378 1
    4674     3039     3040 1
    4675     4218     4220 1
    4676     1097     1094 1
    4677     2598     2601 1
    4678     5410     5411 1
    4679     2163     2164 1
    4680     2042     2043 1
    4681     6676     6679 1
    4682     1263     1260 1
    4683     3592     3595 1
    4684     1541     1542 1
    4685     5369     5371 1
    4686     1523     1525 1
    4687     2970     2971 1
    4688     4477     4478 1
    4689     7006     7007 1
    4690     6894     6891 1
    4691     2628     2631 1
    4692     5058     5061 1
    4693     4007     4004 1
    4694     7279     7282 1
    4695     1057     1060 1
    4696     7450     7452 1
    4697     4798     4800 1
    4698     3935     3934 1
    4699     7591     7593 1
    4700     1352     1350 1
    4701     9502     9504 1
    4702    10006    10008 1
    4703     5638     5641 1
    4704     2671     2674 1
    4705     5882     5885 1
    4706     5913     5916 1
    4707     8494     8496 1
    4708     3711     3709 1
    4709    10042    10044 1
    4710     9034     9036 1
    4711     8131     8134 1
    4712     9895     9896 1
    4713     3674     3671 1
    4714     5700     5704 1
    4715      309      311 1
    4716     1724     1725 1
    4717      880      881 1
    4718     1958     1959 1
    4719     4015     4016 1
    4720     4861     4864 1
    4721     1495     1498 1
    4722     7408     7409 1
    4723     6771     6773 1
    4724      936      938 1
    4725     7999     8001 1
    4726     5036     5038 1
    4727     3529     3531 1
    4728      996      997 1
    4729     2755     2756 1
    4730     4653     4654 1
    4731     1185     1184 1
    4732     3607     3610 1
    4733     7654     7656 1
    4734     1103     1106 1
    4735     3125     3130 1
    4736      711      724 1
    4737     8419     8421 1
    4738     2683     2686 1
    4739     3508     3511 1
    4740      689      691 1
    4741     1653     1656 1
    4742     3115     3117 1
    4743     9991     9993 1
    4744     2511     2513 1
    4745      686      687 1
    4746     5734     5735 1
    4747     3749     3751 1
    4748      294      297 1
    4749     3951     3949 1
    4750      167      169 1
    4751     1671     1668 1
    4752      301      306 1
    4753     9793     9796 1
    4754     5360     5361 1
    4755     1124     1125 1
    4756     7708     7711 1
    4757     9949     9952 1
    4758     3073     3076 1
    4759     1997     1994 1
    4760      746      748 1
    4761      831      833 1
    4762     3212     3215 1
    4763     4859     4856 1
    4764     3861     3859 1
    4765     5190     5192 1
    4766     7435     7437 1
    4767     5009     5012 1
    4768     7837     7840 1
    4769      193      195 1
    4770     7156     7159 1
    4771     3505     3506 1
    4772     1873     1871 1
    4773     3474     3475 1
    4774     4822     4823 1
    4775     6131     6127 1
    4776     1495     1496 1
    4777     4777     4778 1
    4778       84       85 1
    4779     1504     1505 1
    4780     2604     2605 1
    4781     6052     6055 1
    4782     5900     5901 1
    4783     9180     9181 1
    4784     5471     5473 1
    4785     6381     6383 1
    4786     5502     5504 1
    4787     2576     2578 1
    4788     9922     9925 1
    4789     6571     6573 1
    4790     3908     3906 1
    4791     2634     2636 1
    4792     6879     6882 1
    4793     1840     1842 1
    4794     5961     5963 1
    4795     1650     1652 1
    4796     7282     7284 1
    4797     8515     8517 1
    4798     9427     9428 1
    4799     7222     7164 1
    4800     6184     6185 1
    4801     6215     6216 1
    4802     5390     5391 1
    4803     7416     7418 1
    4804     1837     1839 1
    4805     6867     6864 1
    4806     7330     7332 1
    4807     4838     4840 1
    4808     1776     1778 1
    4809      420      422 1
    4810     1471     1472 1
    4811     2416     2417 1
    4812     1532     1534 1
    4813     3990     3991 1
    4814     5592     5593 1
    4815     9394     9395 1
    4816     8590     8591 1
    4817     9598     9599 1
    4818     2891     2892 1
    4819    10045    10048 1
    4820     9934     9935 1
    4821     8926     8927 1
    4822     9430     9431 1
    4823     3556     3557 1
    4824     4266     4268 1
    4825     4683     4685 1
    4826      900      903 1
    4827     4143     4149 1
    4828     3257     3260 1
    4829     2906     2907 1
    4830      504      505 1
    4831      396      397 1
    4832     9334     9335 1
    4833     9040     9042 1
    4834     9775     9776 1
    4835     8263     8264 1
    4836     2375     2372 1
    4837     3208     3211 1
    4838      120      118 1
    4839     7729     7672 1
    4840     9574     9575 1
    4841     8062     8063 1
    4842     5271     5276 1
    4843     2254     2255 1
    4844     4036     4037 1
    4845     6650     6651 1
    4846     4955     4956 1
    4847     1142     1143 1
    4848     3607     3608 1
    4849     3925     3926 1
    4850     1369     1370 1
    4851     9382     9384 1
    4852      794      796 1
    4853     8878     8880 1
    4854     2508     2511 1
    4855     9988     9991 1
    4856     7369     7370 1
    4857     5870     5873 1
    4858     5450     5447 1
    4859     8272     8275 1
    4860     7372     7375 1
    4861     9892     9895 1
    4862     1329     1332 1
    4863      480      477 1
    4864     8530     8532 1
    4865     9538     9540 1
    4866     3628     3631 1
    4867     4097     4100 1
    4868     5607     5609 1
    4869     4722     4723 1
    4870     7678     7681 1
    4871     7381     7383 1
    4872      582      584 1
    4873     8329     8332 1
    4874     9052     8995 1
    4875     9022     9025 1
    4876     9127     9128 1
    4877     1347     1348 1
    4878      181      182 1
    4879     3302     3303 1
    4880     7972     7973 1
    4881      770      771 1
    4882     9142     9143 1
    4883      810      811 1
    4884     5255     5256 1
    4885    10102    10105 1
    4886     6557     6559 1
    4887     5966     5968 1
    4888      338      340 1
    4889     4853     4855 1
    4890      745      738 1
    4891     7651     7652 1
    4892     9649     9646 1
    4893     6694     6698 1
    4894     2468     2470 1
    4895     3294     3301 1
    4896     6039     6041 1
    4897     7097     7100 1
    4898      662      664 1
    4899     2089     2088 1
    4900     7492     7493 1
    4901     9250     9253 1
    4902     8746     8749 1
    4903     2196     2197 1
    4904     7477     7478 1
    4905      680      681 1
    4906     8083     8084 1
    4907     6946     6947 1
    4908     1381     1384 1
    4909      559      556 1
    4910    10165    10168 1
    4911      211      214 1
    4912     9661     9664 1
    4913     6542     6545 1
    4914      816      819 1
    4915     9052     9053 1
    4916     5224     5225 1
    4917     4937     4938 1
    4918     7705     7706 1
    4919     9718     9720 1
    4920     6003     6005 1
    4921      610      611 1
    4922     9214     9216 1
    4923     2233     2234 1
    4924     6653     6654 1
    4925     8710     8712 1
    4926    10072    10073 1
    4927      866      853 1
    4928       97       98 1
    4929     9583     9586 1
    4930     5662     5664 1
    4931     1816     1818 1
    4932     2088     2085 1
    4933     8224     8225 1
    4934     9232     9233 1
    4935     9736     9737 1
    4936      807      809 1
    4937    10147    10149 1
    4938     1656     1657 1
    4939     9139     9141 1
    4940     9643     9645 1
    4941     6441     6442 1
    4942     6838     6836 1
    4943      720      723 1
    4944     1874     1881 1
    4945      387      388 1
    4946     4795     4796 1
    4947     3447     3448 1
    4948     2274     2276 1
    4949     4900     4902 1
    4950     9994     9996 1
    4951     4625     4627 1
    4952     6126     6128 1
    4953     3118     3120 1
    4954     6363     6360 1
    4955     1146     1148 1
    4956     2740     2743 1
    4957     8185     8188 1
    4958     9802     9804 1
    4959     8806     8809 1
    4960     9814     9817 1
    4961     7687     7690 1
    4962     8011     8013 1
    4963     2190     2193 1
    4964     2502     2504 1
    4965      499      498 1
    4966     6752     6754 1
    4967     3721     3720 1
    4968     4572     4575 1
    4969     7129     7132 1
    4970     7810     7813 1
    4971     2619     2622 1
    4972       45       48 1
    4973     1825     1828 1
    4974     2187     2189 1
    4975     6839     6836 1
    4976     3239     3242 1
    4977     2538     2541 1
    4978      112      114 1
    4979     3480     3482 1
    4980     4224     4226 1
    4981     6058     6059 1
    4982     2181     2182 1
    4983     3126     3127 1
    4984     6610     6612 1
    4985     1897     1899 1
    4986     6018     6020 1
    4987     3399     3401 1
    4988     8713     8715 1
    4989     3729     3728 1
    4990     6858     6860 1
    4991     4120     4122 1
    4992     5847     5853 1
    4993      921      923 1
    4994     7267     7270 1
    4995     5114     5115 1
    4996     7353     7354 1
    4997     2387     2388 1
    4998     9271     9272 1
    4999     8767     8768 1
    5000     5629     5630 1
    5001     5598     5599 1
    5002     2749     2750 1
    5003     1924     1925 1
    5004     5700     5701 1
    5005     1934     1935 1
    5006     7495     7496 1
    5007     9286     9287 1
    5008     8107     8050 1
    5009     8611     8554 1
    5010     1867     1871 1
    5011     6707     6710 1
    5012     4422     4426 1
    5013     1299     1298 1
    5014     8389     8392 1
    5015     2640     2637 1
    5016     9976     9973 1
    5017     6694     6697 1
    5018     1311     1313 1
    5019     2323     2324 1
    5020     5375     5376 1
    5021     7339     7340 1
    5022     1498     1499 1
    5023     7576     7577 1
    5024     2091     2092 1
    5025     3520     3521 1
    5026     4233     4234 1
    5027     4202     4203 1
    5028     4404     4407 1
    5029     7082     7085 1
    5030     4012     4014 1
    5031      480      482 1
    5032     8797     8799 1
    5033     3844     3845 1
    5034     1257     1260 1
    5035     1940     1942 1
    5036     7055     7056 1
    5037      393      394 1
    5038     8098     8099 1
    5039      976      977 1
    5040     4842     4843 1
    5041     8602     8603 1
    5042     7204     7206 1
    5043      588      592 1
    5044     5320     5321 1
    5045     3560     3562 1
    5046     8158     8159 1
    5047     1335     1337 1
    5048     9058     9059 1
    5049     4523     4526 1
    5050     9562     9563 1
    5051     9487     9488 1
    5052     1755     1756 1
    5053     7061     7062 1
    5054     3753     3752 1
    5055     3957     3955 1
    5056     8539     8541 1
    5057    10066    10067 1
    5058     2402     2399 1
    5059     3789     3786 1
    5060     1689     1692 1
    5061     8719     8722 1
    5062     6348     6351 1
    5063     5749     5751 1
    5064     8731     8733 1
    5065     8227     8229 1
    5066     2453     2455 1
    5067     2538     2540 1
    5068     1008     1009 1
    5069     7114     7117 1
    5070     7609     7611 1
    5071     9760     9763 1
    5072     8248     8251 1
    5073     2468     2469 1
    5074     1674     1675 1
    5075     2136     2137 1
    5076     8755     8758 1
    5077     1483     1485 1
    5078     4450     4452 1
    5079     1801     1798 1
    5080     4299     4300 1
    5081     4245     4248 1
    5082      704      701 1
    5083     8524     8525 1
    5084     8020     8021 1
    5085     6586     6588 1
    5086     2005     2002 1
    5087     1156     1159 1
    5088      921      918 1
    5089     9373     9376 1
    5090     2289     2291 1
    5091     1072     1074 1
    5092     2686     2687 1
    5093     3511     3512 1
    5094       94       95 1
    5095     8332     8333 1
    5096     1341     1342 1
    5097     1220     1223 1
    5098     5332     5333 1
    5099     2311     2312 1
    5100     4813     4814 1
    5101     7909     7912 1
    5102     5363     5364 1
    5103     2937     2940 1
    5104      979      982 1
    5105     1944     1943 1
    5106     6100     6097 1
    5107     9910     9912 1
    5108     3027     3029 1
    5109     4254     4257 1
    5110     8398     8400 1
    5111     9553     9555 1
    5112    10057    10059 1
    5113     8545     8547 1
    5114     8284     8285 1
    5115     7780     7781 1
    5116      471      472 1
    5117     8041     8043 1
    5118      263      266 1
    5119     8434     8431 1
    5120     4819     4822 1
    5121     3810     3812 1
    5122     1306     1308 1
    5123     1810     1811 1
    5124     1804     1806 1
    5125     1779     1780 1
    5126     5416     5418 1
    5127     4740     4742 1
    5128     5106     5107 1
    5129      344      347 1
    5130     8172     8173 1
    5131      332      334 1
    5132     9175     9117 1
    5133     6453     6455 1
    5134      887      880 1
    5135     5934     5936 1
    5136     9346     9349 1
    5137     3499     3502 1
    5138      163      167 1
    5139     3970     3973 1
    5140     5030     5031 1
    5141     6166     6169 1
    5142     4462     4465 1
    5143      862      864 1
    5144     2428     2430 1
    5145     9838     9840 1
    5146     7363     7365 1
    5147     7141     7143 1
    5148     5916     5918 1
    5149     3836     3838 1
    5150     4227     4230 1
    5151     8764     8767 1
    5152       60       61 1
    5153     6268     6269 1
    5154      599      600 1
    5155     5508     5509 1
    5156     1202     1203 1
    5157     2293     2292 1
    5158     5477     5478 1
    5159     3958     3959 1
    5160      301      302 1
    5161     4583     4584 1
    5162     6287     6288 1
    5163      127      128 1
    5164     6218     6219 1
    5165     3581     3582 1
    5166     9028     9025 1
    5167     9532     9529 1
    5168    10036    10033 1
    5169     1852     1853 1
    5170     6305     6306 1
    5171     2557     2562 1
    5172    10198    10200 1
    5173     5758     5760 1
    5174     8035     8036 1
    5175     7678     7680 1
    5176     4879     4881 1
    5177     9190     9192 1
    5178     3152     3154 1
    5179     5970     5973 1
    5180     6387     6390 1
    5181     2112     2113 1
    5182     9109     9110 1
    5183     6849     6851 1
    5184     8005     8008 1
    5185     3474     3476 1
    5186     3505     3507 1
    5187     1495     1497 1
    5188     4822     4824 1
    5189     6978     6982 1
    5190     9061     9058 1
    5191     6400     6403 1
    5192     9955     9956 1
    5193     9451     9452 1
    5194     3048     3049 1
    5195     3297     3291 1
    5196      392      390 1
    5197     5424     5426 1
    5198     3227     3229 1
    5199     5746     5749 1
    5200     3196     3198 1
    5201     6172     6175 1
    5202      668      670 1
    5203     5251     5253 1
    5204     7378     7381 1
    5205     4834     4836 1
    5206     4166     4169 1
    5207     5387     5390 1
    5208     7390     7393 1
    5209     7135     7132 1
    5210     1918     1921 1
    5211     4132     4135 1
    5212     1471     1473 1
    5213     2416     2418 1
    5214     5592     5594 1
    5215     9781     9783 1
    5216     8269     8271 1
    5217     1706     1705 1
    5218     7612     7615 1
    5219     3876     3873 1
    5220     5674     5676 1
    5221     9829     9831 1
    5222     3193     3196 1
    5223     3224     3227 1
    5224     9226     9229 1
    5225     2408     2405 1
    5226     9073     9075 1
    5227    10081    10084 1
    5228     4541     4543 1
    5229     1314     1316 1
    5230     1130     1133 1
    5231     5088     5089 1
    5232     3968     3967 1
    5233     7897     7899 1
    5234     3560     3551 1
    5235      228      226 1
    5236     4387     4390 1
    5237     9946     9949 1
    5238     2788     2729 1
    5239     7920     7923 1
    5240    10174    10177 1
    5241     9166     9169 1
    5242     7213     7216 1
    5243      317      319 1
    5244     9712     9714 1
    5245     4419     4421 1
    5246     3844     3835 1
    5247     7870     7873 1
    5248      199      201 1
    5249      782      784 1
    5250     1437     1434 1
    5251     6123     6128 1
    5252     6154     6155 1
    5253     7603     7604 1
    5254      372      374 1
    5255     3816     3817 1
    5256     2532     2533 1
    5257     4703     4704 1
    5258     6916     6917 1
    5259     5535     5536 1
    5260     4538     4539 1
    5261     5118     5119 1
    5262     1964     1965 1
    5263      196      199 1
    5264     9049     8991 1
    5265     5058     5059 1
    5266      866      868 1
    5267    10162    10165 1
    5268      538      540 1
    5269     1508     1511 1
    5270      701      698 1
    5271     2879     2876 1
    5272     1556     1553 1
    5273     6314     6317 1
    5274     4610     4613 1
    5275     7606     7605 1
    5276     5070     5071 1
    5277     7195     7197 1
    5278     8482     8484 1
    5279     6471     6474 1
    5280     2514     2516 1
    5281     8986     8988 1
    5282     5335     5338 1
    5283     2837     2840 1
    5284     8989     8932 1
    5285     6279     6273 1
    5286     3552     3551 1
    5287     1251     1248 1
    5288     6771     6774 1
    5289     3529     3532 1
    5290     5036     5039 1
    5291      162      166 1
    5292     2517     2520 1
    5293     9805     9747 1
    5294      338      341 1
    5295     1595     1598 1
    5296      872      875 1
    5297     7055     7057 1
    5298      976      978 1
    5299     5320     5322 1
    5300     8098     8100 1
    5301     4842     4844 1
    5302      393      395 1
    5303     9136     9138 1
    5304    10144    10146 1
    5305     9640     9642 1
    5306     8602     8604 1
    5307     7438     7440 1
    5308     5193     5195 1
    5309     3433     3435 1
    5310     6366     6368 1
    5311     7360     7363 1
    5312     2220     2161 1
    5313     3051     3053 1
    5314     3441     3444 1
    5315     3366     3368 1
    5316     3335     3337 1
    5317     6392     6395 1
    5318     6653     6656 1
    5319     2776     2779 1
    5320     6571     6568 1
    5321     3486     3487 1
    5322     4357     4359 1
    5323     6441     6443 1
    5324     4151     4154 1
    5325    10078    10079 1
    5326     8566     8567 1
    5327     5094     5095 1
    5328    10237    10238 1
    5329     6103     6106 1
    5330     8899     8900 1
    5331     8116     8117 1
    5332     9907     9908 1
    5333     8395     8396 1
    5334      121      122 1
    5335     5410     5412 1
    5336     2042     2044 1
    5337      156      158 1
    5338     4863     4856 1
    5339     9481     9484 1
    5340     9610     9613 1
    5341     7046     7048 1
    5342     6798     6801 1
    5343     3175     3172 1
    5344     8143     8145 1
    5345     6474     6475 1
    5346     6400     6402 1
    5347     7954     7956 1
    5348     8179     8182 1
    5349     9655     9657 1
    5350     8377     8379 1
    5351      828      830 1
    5352     3906     3903 1
    5353     9889     9891 1
    5354     9511     9514 1
    5355     9007     9010 1
    5356    10015    10018 1
    5357     8503     8506 1
    5358     1761     1764 1
    5359     7067     7070 1
    5360     6517     6520 1
    5361     2396     2399 1
    5362    10003    10004 1
    5363     4248     4251 1
    5364     3459     3460 1
    5365     8491     8492 1
    5366     6342     6343 1
    5367    10201    10202 1
    5368     3410     3411 1
    5369     9499     9500 1
    5370      427      432 1
    5371     8980     8981 1
    5372     4894     4895 1
    5373     8476     8477 1
    5374     5529     5530 1
    5375     2477     2478 1
    5376     4925     4926 1
    5377     2207     2205 1
    5378     1921     1924 1
    5379     3429     3433 1
    5380     7542     7544 1
    5381     9286     9288 1
    5382     7495     7497 1
    5383     4154     4157 1
    5384     1257     1258 1
    5385     4777     4780 1
    5386     7794     7795 1
    5387     6876     6877 1
    5388      933      930 1
    5389     1245     1246 1
    5390     4154     4156 1
    5391     6239     6242 1
    5392     4550     4551 1
    5393      628      629 1
    5394     4845     4850 1
    5395     5203     5205 1
    5396     5172     5174 1
    5397     1788     1791 1
    5398     4151     4152 1
    5399     7258     7261 1
    5400     1973     1974 1
    5401     2492     2493 1
    5402     2075     2072 1
    5403    10222    10224 1
    5404     7423     7425 1
    5405     5813     5815 1
    5406     9747     9750 1
    5407     8235     8238 1
    5408     5178     5180 1
    5409     3900     3901 1
    5410     5928     5931 1
    5411     8509     8510 1
    5412     8005     8006 1
    5413     9517     9518 1
    5414     7501     7502 1
    5415     5768     5771 1
    5416     7210     7212 1
    5417     2169     2171 1
    5418     2804     2806 1
    5419     7714     7716 1
    5420     4601     4604 1
    5421     8023     8024 1
    5422     8527     8528 1
    5423       78       80 1
    5424     7441     7443 1
    5425     5227     5229 1
    5426     3054     3056 1
    5427     5196     5198 1
    5428      119      118 1
    5429     6426     6429 1
    5430     5876     5879 1
    5431     6453     6456 1
    5432     8644     8645 1
    5433    10156    10157 1
    5434      202      203 1
    5435     4079     4082 1
    5436     2888     2889 1
    5437     8065     8068 1
    5438     6852     6855 1
    5439     9652     9653 1
    5440      785      786 1
    5441     8928     8930 1
    5442     1662     1665 1
    5443     4598     4601 1
    5444     6783     6785 1
    5445     9432     9434 1
    5446     6493     6496 1
    5447     7234     7235 1
    5448      286      285 1
    5449       24       20 1
    5450     4076     4079 1
    5451     2686     2688 1
    5452     3511     3513 1
    5453      604      605 1
    5454     9823     9825 1
    5455     8284     8286 1
    5456     7780     7782 1
    5457     9967     9969 1
    5458     7453     7455 1
    5459      471      473 1
    5460     3977     3982 1
    5461     8455     8457 1
    5462     8959     8961 1
    5463     1422     1424 1
    5464     2282     2285 1
    5465      229      226 1
    5466     7857     7858 1
    5467     2573     2578 1
    5468     8361     8362 1
    5469     9369     9370 1
    5470     5091     5092 1
    5471     9202     9203 1
    5472     6351     6352 1
    5473     4138     4139 1
    5474    10210    10211 1
    5475     5801     5802 1
    5476     6375     6376 1
    5477     3418     3419 1
    5478     7711     7713 1
    5479     6616     6618 1
    5480     1593     1587 1
    5481     2979     2982 1
    5482     9061     9064 1
    5483     1491     1489 1
    5484     5832     5823 1
    5485     8062     8064 1
    5486     9574     9576 1
    5487      136      138 1
    5488     6959     6964 1
    5489     1816     1819 1
    5490     7607     7605 1
    5491     5662     5665 1
    5492     3739     3737 1
    5493     6268     6270 1
    5494     6116     6119 1
    5495      825      822 1
    5496     3890     3888 1
    5497     5282     5289 1
    5498     2915     2918 1
    5499     2712     2715 1
    5500     2121     2123 1
    5501     4178     4180 1
    5502     4011     4004 1
    5503     2909     2910 1
    5504     7144     7145 1
    5505      399      400 1
    5506     4447     4448 1
    5507     8191     8192 1
    5508     8035     8037 1
    5509       17       18 1
    5510     3350     3351 1
    5511     8695     8696 1
    5512     7456     7457 1
    5513     1646     1647 1
    5514     2471     2472 1
    5515     4094     4095 1
    5516     4888     4889 1
    5517     9547     9549 1
    5518     3118     3121 1
    5519     8191     8194 1
    5520     4308     4311 1
    5521     3871     3870 1
    5522     5922     5919 1
    5523     7555     7557 1
    5524     9208     9209 1
    5525     1961     1962 1
    5526     6336     6339 1
    5527     2226     2224 1
    5528     5807     5808 1
    5529     3924     3865 1
    5530     3332     3335 1
    5531     8125     8128 1
    5532     6610     6613 1
    5533     3399     3402 1
    5534     2033     2036 1
    5535     8713     8716 1
    5536     4714     4715 1
    5537     4934     4935 1
    5538     3851     3848 1
    5539     5728     5729 1
    5540     3586     3587 1
    5541     7408     7411 1
    5542     8158     8161 1
    5543     6082     6084 1
    5544     6396     6399 1
    5545     6813     6816 1
    5546     4734     4735 1
    5547     8800     8743 1
    5548     9304     9247 1
    5549     1437     1442 1
    5550     6254     6257 1
    5551     4550     4553 1
    5552     1022     1024 1
    5553     6542     6543 1
    5554     1807     1808 1
    5555      335      336 1
    5556     7246     7247 1
    5557     4743     4744 1
    5558    10228    10231 1
    5559     8428     8429 1
    5560     5175     5176 1
    5561     4665     4668 1
    5562     7198     7200 1
    5563     6607     6609 1
    5564      173      167 1
    5565     7702     7704 1
    5566     1303     1299 1
    5567     4296     4297 1
    5568     2906     2909 1
    5569      396      399 1
    5570     3631     3633 1
    5571     7390     7392 1
    5572     8350     8353 1
    5573     4375     4377 1
    5574     6722     6725 1
    5575     9334     9337 1
    5576     9862     9865 1
    5577      553      555 1
    5578     5172     5175 1
    5579     1985     1986 1
    5580     9961     9962 1
    5581     3085     3086 1
    5582     6900     6901 1
    5583     6986     6987 1
    5584      794      791 1
    5585    10081    10082 1
    5586     9073     9074 1
    5587     6620     6622 1
    5588     8092     8093 1
    5589     6534     6535 1
    5590     8596     8597 1
    5591     2505     2508 1
    5592     2103     2104 1
    5593     3825     3822 1
    5594     9604     9605 1
    5595     6360     6362 1
    5596     6329     6331 1
    5597     9985     9988 1
    5598     6107     6120 1
    5599     6858     6861 1
    5600     4656     4658 1
    5601     5305     5307 1
    5602     4755     4757 1
    5603      514      516 1
    5604     4212     4215 1
    5605     2420     2423 1
    5606     1795     1798 1
    5607     6817     6830 1
    5608      741      735 1
    5609     4638     4641 1
    5610     7960     7963 1
    5611     2550     2553 1
    5612     6662     6665 1
    5613      436      438 1
    5614     9367     9310 1
    5615     3610     3613 1
    5616     8830     8832 1
    5617     8326     8328 1
    5618     1718     1705 1
    5619     6795     6797 1
    5620     1742     1740 1
    5621     3535     3536 1
    5622     4438     4439 1
    5623     6474     6476 1
    5624      451      453 1
    5625     9148     9150 1
    5626     8182     8184 1
    5627     7252     7253 1
    5628     7174     7176 1
    5629     1668     1670 1
    5630     9043     9044 1
    5631     3097     3099 1
    5632     3066     3068 1
    5633     5789     5791 1
    5634    10117    10118 1
    5635     6904     6905 1
    5636      593      599 1
    5637     4529     4530 1
    5638     6959     6972 1
    5639     1193     1194 1
    5640     4435     4436 1
    5641     6496     6497 1
    5642     5697     5702 1
    5643      263      265 1
    5644     8209     8210 1
    5645     3831     3833 1
    5646     3134     3137 1
    5647     8170     8171 1
    5648     9355     9356 1
    5649     8851     8852 1
    5650     9859     9860 1
    5651     8347     8348 1
    5652     4861     4862 1
    5653     6719     6720 1
    5654     6212     6213 1
    5655     6181     6182 1
    5656     1227     1230 1
    5657     6203     6206 1
    5658     4193     4196 1
    5659    10009    10011 1
    5660     9505     9507 1
    5661     7969     7971 1
    5662     4616     4618 1
    5663     5842     5844 1
    5664     3027     3030 1
    5665     7219     7216 1
    5666     7465     7467 1
    5667     7882     7885 1
    5668     9001     9003 1
    5669     9898     9901 1
    5670     8890     8893 1
    5671      559      562 1
    5672     8320     8317 1
    5673     2677     2680 1
    5674     5520     5523 1
    5675     2150     2154 1
    5676     3693     3694 1
    5677     5302     5299 1
    5678     2616     2619 1
    5679     2584     2591 1
    5680     7528     7529 1
    5681      724      725 1
    5682     5453     5456 1
    5683     7198     7201 1
    5684     5813     5816 1
    5685     6088     6091 1
    5686      217      218 1
    5687    10204    10206 1
    5688     2221     2218 1
    5689     5397     5406 1
    5690      184      186 1
    5691     9004     9005 1
    5692     5113     5114 1
    5693     8458     8460 1
    5694      985      988 1
    5695     8485     8486 1
    5696     1453     1454 1
    5697     9997     9998 1
    5698     2517     2518 1
    5699     1607     1608 1
    5700     3276     3279 1
    5701     1825     1822 1
    5702     5157     5159 1
    5703     8470     8472 1
    5704     7966     7968 1
    5705     5839     5841 1
    5706     7639     7636 1
    5707     8896     8899 1
    5708     5054     5055 1
    5709     6404     6406 1
    5710     1856     1857 1
    5711      251      253 1
    5712     4728     4729 1
    5713     2387     2390 1
    5714     5629     5632 1
    5715      880      882 1
    5716     5598     5601 1
    5717     1958     1960 1
    5718     1724     1726 1
    5719     9154     9157 1
    5720     4015     4017 1
    5721     1837     1834 1
    5722     3323     3325 1
    5723     4143     4145 1
    5724     2498     2500 1
    5725     4665     4667 1
    5726     7876     7879 1
    5727     3149     3151 1
    5728      312      314 1
    5729     2529     2531 1
    5730      996      998 1
    5731     3317     3319 1
    5732     3938     3937 1
    5733     8188     8191 1
    5734     8521     8523 1
    5735     7840     7841 1
    5736     4064     4065 1
    5737     4187     4188 1
    5738     5413     5414 1
    5739     4964     4965 1
    5740     8461     8462 1
    5741     3230     3231 1
    5742     7159     7160 1
    5743     3514     3515 1
    5744     6052     6053 1
    5745     7114     7115 1
    5746     1590     1591 1
    5747     3483     3484 1
    5748      613      615 1
    5749     4867     4869 1
    5750     3798     3801 1
    5751     4931     4934 1
    5752     9931     9932 1
    5753     8419     8420 1
    5754     7915     7916 1
    5755     5647     5650 1
    5756     6218     6221 1
    5757     2776     2777 1
    5758     2405     2402 1
    5759     1097     1098 1
    5760     1066     1067 1
    5761     1645     1643 1
    5762     8599     8600 1
    5763     3869     3867 1
    5764     8095     8096 1
    5765     8467     8469 1
    5766     5317     5318 1
    5767     7222     7223 1
    5768     2456     2457 1
    5769     8386     8387 1
    5770     8509     8511 1
    5771     8005     8007 1
    5772     4873     4875 1
    5773     9517     9519 1
    5774     2912     2915 1
    5775     7501     7503 1
    5776      275      277 1
    5777     4314     4317 1
    5778    10027    10028 1
    5779     4456     4457 1
    5780     3575     3576 1
    5781     9523     9524 1
    5782     3715     3712 1
    5783     2196     2198 1
    5784     2502     2505 1
    5785     4262     4265 1
    5786       28       29 1
    5787     6269     6273 1
    5788     6894     6895 1
    5789     2773     2774 1
    5790     2795     2796 1
    5791     6290     6291 1
    5792     5540     5541 1
    5793     5626     5627 1
    5794     5271     5272 1
    5795     1900     1903 1
    5796     9157     9159 1
    5797      866      869 1
    5798    10168    10169 1
    5799     4444     4441 1
    5800     9664     9665 1
    5801     9667     9670 1
    5802     7471     7474 1
    5803     1523     1526 1
    5804     7684     7687 1
    5805     6580     6583 1
    5806     5850     5853 1
    5807      510      512 1
    5808     7552     7555 1
    5809     2834     2837 1
    5810     9394     9396 1
    5811     7537     7538 1
    5812     5009     5006 1
    5813     7987     7988 1
    5814     2088     2091 1
    5815     1182     1181 1
    5816     8548     8491 1
    5817    10060    10003 1
    5818     4067     4070 1
    5819     9556     9499 1
    5820      625      622 1
    5821     1311     1314 1
    5822     4106     4109 1
    5823    10135    10136 1
    5824     5719     5720 1
    5825     9631     9632 1
    5826     5465     5468 1
    5827     2752     2753 1
    5828      375      372 1
    5829     4650     4651 1
    5830     8944     8947 1
    5831     5715     5713 1
    5832     5656     5658 1
    5833     3208     3210 1
    5834     3294     3296 1
    5835     2689     2691 1
    5836     5021     5023 1
    5837     7570     7572 1
    5838     9457     9459 1
    5839     2879     2881 1
    5840     7849     7851 1
    5841     8550     8553 1
    5842     6882     6885 1
    5843     1359     1360 1
    5844     1161     1167 1
    5845     1659     1662 1
    5846      570      573 1
    5847      391      390 1
    5848     9787     9788 1
    5849     4270     4272 1
    5850     7549     7551 1
    5851     5140     5142 1
    5852     6366     6369 1
    5853     5635     5638 1
    5854     1280     1282 1
    5855     6699     6705 1
    5856     1008     1011 1
    5857     2356     2359 1
    5858      695      698 1
    5859     3468     3469 1
    5860     6520     6521 1
    5861     4816     4817 1
    5862       34       33 1
    5863     4995     4997 1
    5864     2730     2729 1
    5865     1036     1039 1
    5866     5823     5828 1
    5867     2715     2720 1
    5868     6281     6283 1
    5869     1112     1109 1
    5870     7885     7888 1
    5871     2311     2308 1
    5872      628      625 1
    5873     8371     8372 1
    5874      791      792 1
    5875     4175     4176 1
    5876     5974     5975 1
    5877     9445     9448 1
    5878     9229     9230 1
    5879     6421     6422 1
    5880     5181     5182 1
    5881     5212     5213 1
    5882     3589     3590 1
    5883     7945     7948 1
    5884     2112     2115 1
    5885     9109     9112 1
    5886     1347     1349 1
    5887     3302     3304 1
    5888      495      498 1
    5889     9127     9129 1
    5890     7972     7974 1
    5891      181      183 1
    5892      927      929 1
    5893     5302     5304 1
    5894     6731     6733 1
    5895     9331     9334 1
    5896      804      807 1
    5897     3707     3706 1
    5898     4545     4550 1
    5899      683      680 1
    5900     2139     2136 1
    5901     1619     1621 1
    5902     3257     3258 1
    5903     2483     2485 1
    5904     6822     6824 1
    5905     6502     6505 1
    5906     4120     4119 1
    5907     3248     3250 1
    5908     6435     6438 1
    5909      995     1000 1
    5910     3943     3940 1
    5911     2940     2942 1
    5912     2700     2702 1
    5913     5206     5209 1
    5914      897      899 1
    5915     3439     3433 1
    5916     4984     4987 1
    5917     9373     9374 1
    5918     8365     8366 1
    5919     9148     9149 1
    5920     6107     6108 1
    5921      816      817 1
    5922     7861     7862 1
    5923     2541     2544 1
    5924     1708     1706 1
    5925     5728     5731 1
    5926     9610     9612 1
    5927     8653     8654 1
    5928     6542     6544 1
    5929     4743     4745 1
    5930     1807     1809 1
    5931     8149     8150 1
    5932     8527     8530 1
    5933      335      337 1
    5934     7246     7248 1
    5935     2266     2267 1
    5936     1631     1632 1
    5937     6012     6013 1
    5938     4687     4692 1
    5939     5224     5226 1
    5940      610      612 1
    5941     6653     6655 1
    5942     2795     2797 1
    5943     7648     7651 1
    5944     2776     2778 1
    5945     7705     7707 1
    5946     4937     4939 1
    5947     4039     4041 1
    5948     9589     9590 1
    5949     8077     8078 1
    5950     1782     1783 1
    5951     9460     9461 1
    5952     3552     3553 1
    5953    10081    10083 1
    5954     6484     6485 1
    5955     8926     8869 1
    5956     9097     9098 1
    5957     8287     8284 1
    5958     8089     8090 1
    5959     8593     8594 1
    5960     9601     9602 1
    5961     2100     2101 1
    5962     4486     4487 1
    5963     9934     9877 1
    5964     4517     4518 1
    5965      601      602 1
    5966     5009     5010 1
    5967     7837     7838 1
    5968     7156     7157 1
    5969    10125    10128 1
    5970     1272     1274 1
    5971      367      365 1
    5972      260      262 1
    5973      323      326 1
    5974     9793     9794 1
    5975    10078    10080 1
    5976     3350     3353 1
    5977     1646     1649 1
    5978      312      319 1
    5979     9757     9759 1
    5980     8245     8247 1
    5981     8566     8568 1
    5982     8281     8282 1
    5983     5094     5096 1
    5984     3299     3301 1
    5985     9784     9786 1
    5986     7768     7770 1
    5987     7594     7597 1
    5988     8518     8520 1
    5989     6837     6841 1
    5990     8014     8016 1
    5991    10024    10027 1
    5992     9520     9523 1
    5993     8512     8515 1
    5994     1634     1636 1
    5995     8872     8874 1
    5996     9880     9882 1
    5997     6665     6667 1
    5998     6546     6547 1
    5999     8368     8370 1
    6000     3535     3537 1
    6001     4438     4440 1
    6002     7315     7316 1
    6003     4453     4456 1
    6004     7261     7263 1
    6005     2946     2949 1
    6006      432      435 1
    6007     2983     2984 1
    6008     6861     6862 1
    6009     5242     5243 1
    6010     7252     7254 1
    6011     4057     4058 1
    6012     5003     5004 1
    6013     3619     3620 1
    6014    10207    10208 1
    6015     9043     9045 1
    6016     5798     5799 1
    6017     4919     4920 1
    6018     2187     2184 1
    6019     3033     3036 1
    6020     6622     6563 1
    6021     1230     1232 1
    6022     2782     2784 1
    6023     7561     7564 1
    6024     1903     1905 1
    6025     6055     6057 1
    6026     9243     9244 1
    6027     6496     6498 1
    6028      345      344 1
    6029     8739     8740 1
    6030     1396     1397 1
    6031     2019     2013 1
    6032     2850     2851 1
    6033     8704     8705 1
    6034     4774     4775 1
    6035     8200     8201 1
    6036     1297     1295 1
    6037    10216    10217 1
    6038      220      222 1
    6039     9256     9259 1
    6040     7639     7642 1
    6041     2976     2978 1
    6042     9076     9079 1
    6043     6200     6203 1
    6044     4483     4485 1
    6045     2158     2161 1
    6046      381      383 1
    6047     5879     5882 1
    6048     2097     2099 1
    6049      148      150 1
    6050     5583     5585 1
    6051     4088     4090 1
    6052     6348     6350 1
    6053     3375     3377 1
    6054     6952     6954 1
    6055     3422     3424 1
    6056     2465     2467 1
    6057     1671     1673 1
    6058     1741     1740 1
    6059     8802     8804 1
    6060     9306     9308 1
    6061     9799     9796 1
    6062     6250     6253 1
    6063     3634     3636 1
    6064     5459     5460 1
    6065     1613     1614 1
    6066     4378     4380 1
    6067     3492     3495 1
    6068     6671     6674 1
    6069     7519     7521 1
    6070     8002     8005 1
    6071      263      260 1
    6072      900      901 1
    6073     7227     7230 1
    6074     4224     4227 1
    6075     1583     1587 1
    6076     4305     4307 1
    6077     6009     6011 1
    6078     1714     1716 1
    6079     8911     8912 1
    6080     4474     4471 1
    6081     7624     7625 1
    6082     9415     9416 1
    6083      716      717 1
    6084     9082     9083 1
    6085     9684     9685 1
    6086     6206     6207 1
    6087     2054     2055 1
    6088     3280     3281 1
    6089     1891     1888 1
    6090     9364     9366 1
    6091     1164     1166 1
    6092     2607     2609 1
    6093     6236     6239 1
    6094     3883     3882 1
    6095     6586     6589 1
    6096     1906     1909 1
    6097     6734     6735 1
    6098     9577     9580 1
    6099     9856     9859 1
    6100     4354     4357 1
    6101      930      931 1
    6102     4546     4547 1
    6103     6716     6719 1
    6104     9352     9355 1
    6105     6462     6465 1
    6106      428      431 1
    6107     3514     3517 1
    6108     2176     2175 1
    6109     6055     6058 1
    6110      813      810 1
    6111     5260     5261 1
    6112     5867     5868 1
    6113     3263     3260 1
    6114     7459     7461 1
    6115     8170     8113 1
    6116     6493     6494 1
    6117     3248     3251 1
    6118     5429     5430 1
    6119       42       43 1
    6120     4280     4281 1
    6121     2723     2724 1
    6122     7747     7750 1
    6123     4789     4790 1
    6124     5151     5152 1
    6125     4696     4697 1
    6126     5566     5567 1
    6127     6964     6967 1
    6128     3914     3912 1
    6129     5145     5147 1
    6130     1112     1114 1
    6131     7516     7519 1
    6132      995     1004 1
    6133     7794     7797 1
    6134     7840     7842 1
    6135     4187     4189 1
    6136     5413     5415 1
    6137     3230     3232 1
    6138     7159     7161 1
    6139      843      840 1
    6140     3125     3126 1
    6141     5256     5257 1
    6142     5187     5189 1
    6143     7432     7434 1
    6144     5218     5220 1
    6145     6299     6300 1
    6146     1184     1181 1
    6147      178      179 1
    6148     1344     1345 1
    6149     1100     1102 1
    6150     3631     3634 1
    6151     4375     4378 1
    6152     7873     7874 1
    6153        6        1 1
    6154     9280     9281 1
    6155     3944     3943 1
    6156     8599     8601 1
    6157     5317     5319 1
    6158     8095     8097 1
    6159     2266     2263 1
    6160     1288     1290 1
    6161     4423     4427 1
    6162     9763     9765 1
    6163     8251     8253 1
    6164     8899     8902 1
    6165     9907     9910 1
    6166     8116     8119 1
    6167     8395     8398 1
    6168    10198    10201 1
    6169     3152     3155 1
    6170      451      447 1
    6171     4635     4638 1
    6172     8991     8993 1
    6173     5864     5866 1
    6174     3157     3160 1
    6175     6100     6103 1
    6176     1619     1622 1
    6177     3598     3601 1
    6178     3958     3955 1
    6179     1254     1255 1
    6180     6873     6874 1
    6181      436      437 1
    6182     5169     5170 1
    6183    10027    10029 1
    6184     9523     9525 1
    6185     7909     7910 1
    6186     7108     7110 1
    6187      298      285 1
    6188     8311     8314 1
    6189     8815     8818 1
    6190     9586     9588 1
    6191      692      689 1
    6192     6175     6177 1
    6193     8074     8076 1
    6194     3673     3671 1
    6195     3881     3879 1
    6196     1414     1415 1
    6197     4146     4148 1
    6198     6425     6418 1
    6199     3761     3762 1
    6200    10012    10013 1
    6201     2384     2381 1
    6202     6762     6763 1
    6203     9376     9379 1
    6204     5855     5857 1
    6205     7981     7982 1
    6206     2897     2900 1
    6207     3311     3312 1
    6208     7048     6989 1
    6209     1600     1598 1
    6210     2378     2381 1
    6211     9265     9262 1
    6212     8506     8509 1
    6213     9514     9517 1
    6214     8437     8440 1
    6215     3326     3327 1
    6216     1695     1696 1
    6217     4138     4141 1
    6218     4024     4026 1
    6219      649      651 1
    6220     6332     6334 1
    6221     5468     5469 1
    6222     5209     5211 1
    6223     2326     2329 1
    6224     1785     1787 1
    6225     4274     4276 1
    6226      190      193 1
    6227      764      767 1
    6228     3788     3786 1
    6229    10009    10012 1
    6230     6082     6085 1
    6231     5777     5778 1
    6232      359      356 1
    6233     5746     5747 1
    6234     4073     4074 1
    6235     2045     2046 1
    6236     9856     9857 1
    6237     8848     8849 1
    6238     5768     5769 1
    6239     4054     4055 1
    6240     6716     6717 1
    6241     9352     9353 1
    6242     4266     4261 1
    6243     3855     3854 1
    6244     6265     6266 1
    6245     1955     1958 1
    6246     1260     1262 1
    6247     8932     8934 1
    6248     7021     7024 1
    6249     9436     9438 1
    6250     9091     9093 1
    6251     1456     1453 1
    6252     2665     2667 1
    6253     1964     1967 1
    6254     1848     1847 1
    6255     4199     4202 1
    6256     8734     8676 1
    6257     8680     8683 1
    6258     4169     4171 1
    6259     7920     7922 1
    6260     7303     7306 1
    6261     6187     6190 1
    6262     5348     5349 1
    6263     9031     9034 1
    6264    10039    10042 1
    6265      973      974 1
    6266     5274     5275 1
    6267     7951     7952 1
    6268      359      360 1
    6269     4523     4524 1
    6270     9607     9608 1
    6271     6546     6548 1
    6272     7315     7317 1
    6273     1387     1389 1
    6274     4480     4483 1
    6275     8269     8272 1
    6276     1998     1999 1
    6277     2532     2534 1
    6278     4703     4705 1
    6279     6916     6918 1
    6280     8647     8650 1
    6281     4589     4591 1
    6282      819      822 1
    6283    10159    10162 1
    6284     2822     2824 1
    6285     9508     9510 1
    6286     2943     2946 1
    6287     8500     8502 1
    6288     7996     7998 1
    6289     2202     2203 1
    6290    10012    10015 1
    6291      495      492 1
    6292     1752     1753 1
    6293     9484     9485 1
    6294     7255     7256 1
    6295     7741     7744 1
    6296     3969     3967 1
    6297     9229     9232 1
    6298     2674     2675 1
    6299     4341     4342 1
    6300     2834     2835 1
    6301     2984     2985 1
    6302     2332     2333 1
    6303     4242     4243 1
    6304     3640     3638 1
    6305     2054     2057 1
    6306     8068     8069 1
    6307     4190     4191 1
    6308     2048     2049 1
    6309     1927     1924 1
    6310     8809     8810 1
    6311     8305     8306 1
    6312     9817     9818 1
    6313     9616     9558 1
    6314      755      756 1
    6315     7091     7092 1
    6316     1127     1129 1
    6317     1955     1957 1
    6318      880      883 1
    6319     8161     8164 1
    6320     1958     1961 1
    6321     4015     4018 1
    6322     8293     8295 1
    6323     6762     6765 1
    6324     5342     5344 1
    6325     8008     8011 1
    6326     6907     6910 1
    6327     1317     1319 1
    6328     3538     3539 1
    6329     5045     5046 1
    6330     6242     6244 1
    6331     7483     7484 1
    6332     3873     3874 1
    6333     4350     4291 1
    6334     7144     7147 1
    6335     9337     9340 1
    6336     8956     8958 1
    6337     4870     4872 1
    6338     8046     8048 1
    6339     3750     3749 1
    6340     1659     1661 1
    6341     9097     9099 1
    6342     8593     8595 1
    6343     9601     9603 1
    6344     3381     3378 1
    6345     2100     2102 1
    6346     4486     4488 1
    6347     4517     4519 1
    6348     3882     3885 1
    6349     8089     8091 1
    6350     4700     4703 1
    6351     7384     7386 1
    6352     9772     9775 1
    6353     8260     8263 1
    6354     9283     9284 1
    6355     8779     8780 1
    6356     7915     7857 1
    6357     8419     8361 1
    6358     2033     2035 1
    6359       63       65 1
    6360     4725     4727 1
    6361     6462     6464 1
    6362     1335     1332 1
    6363      486      487 1
    6364     1572     1575 1
    6365     9733     9736 1
    6366     2532     2535 1
    6367     8221     8224 1
    6368     6108     6110 1
    6369     5910     5912 1
    6370     5432     5434 1
    6371     5558     5560 1
    6372     1088     1089 1
    6373     3743     3745 1
    6374     7240     7242 1
    6375     6203     6204 1
    6376       81       82 1
    6377      541      542 1
    6378     4305     4308 1
    6379     6792     6793 1
    6380     3496     3498 1
    6381     8560     8561 1
    6382     6931     6934 1
    6383     5989     5990 1
    6384    10117    10120 1
    6385     2036     2037 1
    6386     8980     8982 1
    6387     4894     4896 1
    6388     1435     1434 1
    6389     4925     4927 1
    6390     5529     5531 1
    6391     8476     8478 1
    6392     2477     2479 1
    6393     4529     4532 1
    6394     9013     9014 1
    6395      556      557 1
    6396     3667     3665 1
    6397      887      885 1
    6398     3592     3594 1
    6399     6888     6890 1
    6400     2570     2572 1
    6401     6094     6096 1
    6402     5496     5498 1
    6403     7903     7904 1
    6404     6484     6481 1
    6405     2480     2483 1
    6406     4946     4948 1
    6407     7963     7966 1
    6408      187      190 1
    6409     6169     6171 1
    6410     4465     4467 1
    6411     3268     3270 1
    6412     6178     6180 1
    6413     3286     3290 1
    6414     1263     1265 1
    6415      124      125 1
    6416     5891     5894 1
    6417     6490     6491 1
    6418     6459     6460 1
    6419     5873     5875 1
    6420     6148     6150 1
    6421     3996     3999 1
    6422     7597     7599 1
    6423     3906     3909 1
    6424      943      940 1
    6425     1292     1293 1
    6426      175      176 1
    6427     6206     6209 1
    6428     7849     7852 1
    6429     3146     3144 1
    6430       22       17 1
    6431     3363     3366 1
    6432     5233     5234 1
    6433     1937     1938 1
    6434     6027     6028 1
    6435     3441     3442 1
    6436     5737     5738 1
    6437     4943     4944 1
    6438     3567     3568 1
    6439     1863     1864 1
    6440     4270     4273 1
    6441     2439     2435 1
    6442     6033     6035 1
    6443     6308     6310 1
    6444     8053     8056 1
    6445     6064     6066 1
    6446     3138     3140 1
    6447     5824     5827 1
    6448     8194     8195 1
    6449     5132     5133 1
    6450     6595     6596 1
    6451     4242     4239 1
    6452     8239     8240 1
    6453     9751     9752 1
    6454      565      566 1
    6455     1057     1054 1
    6456     6691     6692 1
    6457     7046     7047 1
    6458     2495     2497 1
    6459     3405     3407 1
    6460     2770     2772 1
    6461     2988     2990 1
    6462     2801     2803 1
    6463     4308     4310 1
    6464     7207     7209 1
    6465     4867     4870 1
    6466      944      943 1
    6467     7972     7975 1
    6468     3302     3305 1
    6469     1251     1253 1
    6470     5302     5305 1
    6471     6731     6734 1
    6472      927      930 1
    6473     5722     5725 1
    6474     6855     6858 1
    6475     4961     4964 1
    6476     5260     5262 1
    6477     5867     5869 1
    6478     6247     6245 1
    6479     8110     8109 1
    6480      242      243 1
    6481     3267     3276 1
    6482     6695     6699 1
    6483     7762     7763 1
    6484     9976     9977 1
    6485     1640     1641 1
    6486     6054     5995 1
    6487     4490     4491 1
    6488     4607     4608 1
    6489     5345     5347 1
    6490     2992     2994 1
    6491     5949     5951 1
    6492     7588     7590 1
    6493     1743     1740 1
    6494     4671     4674 1
    6495     5853     5854 1
    6496     6423     6425 1
    6497     3187     3188 1
    6498     8338     8340 1
    6499     8842     8844 1
    6500     6710     6712 1
    6501     9418     9419 1
    6502     8914     8915 1
    6503     8404     8401 1
    6504     9916     9913 1
    6505      156      143 1
    6506      520      523 1
    6507      920      918 1
    6508     9409     9411 1
    6509     9763     9766 1
    6510     8656     8659 1
    6511     4937     4940 1
    6512     2795     2798 1
    6513     7705     7708 1
    6514     4135     4137 1
    6515     6073     6075 1
    6516      294      296 1
    6517     2297     2299 1
    6518     3859     3855 1
    6519     6317     6319 1
    6520     8968     8970 1
    6521     4206     4208 1
    6522     3100     3102 1
    6523     7177     7179 1
    6524     3836     3835 1
    6525     4565     4569 1
    6526     8920     8922 1
    6527      246      245 1
    6528      822      823 1
    6529     2308     2309 1
    6530     5126     5127 1
    6531     8836     8837 1
    6532     7828     7829 1
    6533      248      249 1
    6534     6000     6001 1
    6535     1604     1605 1
    6536     4416     4403 1
    6537     2640     2641 1
    6538     9568     9569 1
    6539     9211     9212 1
    6540     7924     7925 1
    6541     9715     9716 1
    6542     9442     9443 1
    6543      903      904 1
    6544     1913     1912 1
    6545     8056     8057 1
    6546     2726     2727 1
    6547     4277     4282 1
    6548     3003     3007 1
    6549     8731     8728 1
    6550     2970     2972 1
    6551     4477     4479 1
    6552     7006     7008 1
    6553     1541     1543 1
    6554      643      646 1
    6555     5471     5472 1
    6556     6381     6382 1
    6557     5502     5503 1
    6558     2021     2022 1
    6559     2576     2577 1
    6560     6571     6572 1
    6561     4335     4338 1
    6562     7041     7039 1
    6563     3583     3585 1
    6564      677      679 1
    6565     6215     6217 1
    6566     6184     6186 1
    6567     5390     5392 1
    6568     1735     1794 1
    6569     6410     6413 1
    6570     4115     4118 1
    6571     2495     2498 1
    6572     6287     6290 1
    6573     6496     6499 1
    6574    10075    10077 1
    6575     8710     8713 1
    6576     6003     6006 1
    6577     4816     4819 1
    6578     3057     3060 1
    6579     4770     4767 1
    6580     5764     5766 1
    6581     6423     6424 1
    6582     4683     4684 1
    6583     3804     3801 1
    6584     9196     9198 1
    6585     5795     5797 1
    6586     3538     3540 1
    6587     5045     5047 1
    6588     4266     4267 1
    6589     4687     4696 1
    6590     8524     8521 1
    6591     7531     7532 1
    6592     4554     4557 1
    6593     2045     2047 1
    6594     8848     8850 1
    6595     3653     3654 1
    6596     6276     6277 1
    6597     9856     9858 1
    6598     9826     9827 1
    6599     6716     6718 1
    6600     9352     9354 1
    6601     3790     3789 1
    6602     1701     1703 1
    6603     8440     8442 1
    6604      448      443 1
    6605     3724     3723 1
    6606     4912     4914 1
    6607     4393     4395 1
    6608     4419     4424 1
    6609     9682     9683 1
    6610     1375     1376 1
    6611     2408     2409 1
    6612     7564     7565 1
    6613     7079     7080 1
    6614      468      469 1
    6615     5009     5011 1
    6616     7837     7839 1
    6617     7156     7158 1
    6618     8164     8165 1
    6619     2051     2054 1
    6620     2704     2699 1
    6621     6268     6272 1
    6622     5133     5137 1
    6623     7504     7507 1
    6624     4876     4878 1
    6625      593      594 1
    6626      278      280 1
    6627     2758     2755 1
    6628     5552     5555 1
    6629     7675     7677 1
    6630      359      361 1
    6631     5348     5350 1
    6632      973      975 1
    6633     4523     4525 1
    6634     9607     9609 1
    6635     5832     5835 1
    6636     7270     7273 1
    6637     5607     5610 1
    6638     7486     7488 1
    6639     8755     8757 1
    6640     7906     7909 1
    6641    10147    10150 1
    6642      788      791 1
    6643     9103     9106 1
    6644     1915     1916 1
    6645     5248     5249 1
    6646     2221     2222 1
    6647     4882     4883 1
    6648     5438     5439 1
    6649     7462     7463 1
    6650     1451     1452 1
    6651      897      900 1
    6652     1088     1090 1
    6653     6968     6969 1
    6654     5438     5441 1
    6655     3332     3334 1
    6656     4242     4244 1
    6657     9369     9371 1
    6658     1226     1224 1
    6659     5447     5448 1
    6660     1172     1173 1
    6661     6218     6215 1
    6662     8884     8885 1
    6663     9091     9094 1
    6664     5635     5637 1
    6665     1161     1163 1
    6666     8590     8592 1
    6667     7339     7342 1
    6668     9598     9600 1
    6669     2323     2326 1
    6670     5375     5378 1
    6671     1498     1501 1
    6672     2891     2893 1
    6673      942      940 1
    6674     3825     3826 1
    6675      544      547 1
    6676     6818     6821 1
    6677     5610     5611 1
    6678     2841     2842 1
    6679     7501     7504 1
    6680     6601     6603 1
    6681      869      871 1
    6682     7696     7698 1
    6683     9199     9200 1
    6684     4774     4777 1
    6685     5145     5148 1
    6686     8287     8288 1
    6687     9295     9296 1
    6688     8791     8792 1
    6689     7744     7746 1
    6690     3839     3836 1
    6691     8053     8054 1
    6692     8557     8558 1
    6693     1254     1251 1
    6694     1967     1969 1
    6695     9439     9441 1
    6696    10213    10210 1
    6697     9112     9054 1
    6698     4903     4905 1
    6699     3036     3038 1
    6700     8431     8433 1
    6701     6780     6783 1
    6702     6560     6563 1
    6703     8111     8109 1
    6704      328      326 1
    6705     8443     8445 1
    6706     3441     3443 1
    6707     4396     4398 1
    6708     8947     8949 1
    6709     3079     3081 1
    6710     9691     9694 1
    6711     3369     3372 1
    6712     3010     3011 1
    6713     7336     7337 1
    6714     6112     6114 1
    6715     6972     6974 1
    6716     4952     4954 1
    6717     3329     3331 1
    6718     3754     3752 1
    6719      178      175 1
    6720     1579     1581 1
    6721     5384     5386 1
    6722      924      926 1
    6723     7003     7005 1
    6724     2940     2943 1
    6725     5601     5604 1
    6726     4722     4724 1
    6727     5157     5160 1
    6728     7411     7412 1
    6729     9238     9180 1
    6730     5752     5755 1
    6731     9595     9596 1
    6732     1860     1861 1
    6733    10192    10195 1
    6734      371      368 1
    6735     9688     9691 1
    6736     1477     1479 1
    6737     3276     3278 1
    6738     7009     7010 1
    6739     9184     9187 1
    6740     8587     8588 1
    6741     1362     1365 1
    6742     6203     6205 1
    6743       81       83 1
    6744     7378     7379 1
    6745     5668     5669 1
    6746     2341     2342 1
    6747     2132     2133 1
    6748     3526     3527 1
    6749     5033     5034 1
    6750     9013     9015 1
    6751     8437     8438 1
    6752      556      558 1
    6753     7492     7494 1
    6754     7318     7319 1
    6755     7237     7240 1
    6756     2850     2853 1
    6757     3024     3025 1
    6758     4372     4373 1
    6759     9850     9851 1
    6760     7510     7511 1
    6761     1341     1344 1
    6762     8644     8647 1
    6763     5847     5848 1
    6764    10156    10159 1
    6765     9226     9227 1
    6766     3045     3047 1
    6767     3076     3078 1
    6768     9054     9055 1
    6769    10062    10063 1
    6770     3363     3364 1
    6771     9558     9559 1
    6772     4680     4681 1
    6773     5406     5409 1
    6774     8608     8550 1
    6775     4589     4590 1
    6776     7366     7368 1
    6777     1501     1504 1
    6778     2928     2931 1
    6779     7138     7141 1
    6780     1785     1788 1
    6781     4274     4277 1
    6782     9505     9508 1
    6783     1042     1043 1
    6784     8971     8974 1
    6785      211      208 1
    6786     2928     2930 1
    6787      789      788 1
    6788       33       36 1
    6789      320      322 1
    6790     2033     2030 1
    6791     6432     6434 1
    6792     8386     8388 1
    6793     3616     3619 1
    6794     4369     4370 1
    6795     8689     8690 1
    6796     3625     3626 1
    6797     5761     5762 1
    6798     5517     5518 1
    6799      387      389 1
    6800     3447     3449 1
    6801     5792     5793 1
    6802     4795     4797 1
    6803     9193     9194 1
    6804     6048     6049 1
    6805     2873     2874 1
    6806     5444     5445 1
    6807     3641     3642 1
    6808     8302     8305 1
    6809     7088     7091 1
    6810     3106     3109 1
    6811     5737     5740 1
    6812      853      854 1
    6813     9019     9022 1
    6814     9856     9853 1
    6815     6450     6452 1
    6816     4262     4264 1
    6817     5296     5299 1
    6818     8155     8156 1
    6819     7666     7609 1
    6820     8404     8407 1
    6821     9916     9919 1
    6822     6916     6919 1
    6823     5548     5549 1
    6824     8275     8278 1
    6825     7049     7052 1
    6826     1156     1160 1
    6827     6088     6089 1
    6828      286      287 1
    6829      390      393 1
    6830     1396     1399 1
    6831      147      144 1
    6832     3085     3082 1
    6833     5532     5534 1
    6834     4622     4624 1
    6835     1302     1298 1
    6836     8617     8620 1
    6837     6157     6154 1
    6838     1109     1110 1
    6839     6172     6173 1
    6840     1320     1321 1
    6841     1033     1035 1
    6842     8998     8999 1
    6843     5774     5775 1
    6844     7930     7931 1
    6845     6928     6929 1
    6846     3112     3109 1
    6847     6847     6848 1
    6848     7201     7202 1
    6849     5743     5744 1
    6850      995     1008 1
    6851     1885     1886 1
    6852      582      569 1
    6853    10135    10137 1
    6854     5719     5721 1
    6855     5694     5697 1
    6856     9631     9633 1
    6857     2752     2754 1
    6858     4650     4652 1
    6859     2091     2093 1
    6860     3520     3522 1
    6861     7576     7578 1
    6862     4233     4235 1
    6863     4202     4204 1
    6864     4569     4575 1
    6865     7696     7699 1
    6866     7975     7978 1
    6867     5952     5949 1
    6868     3305     3308 1
    6869     1359     1361 1
    6870     2459     2462 1
    6871     5372     5373 1
    6872     2996     2997 1
    6873     7072     7070 1
    6874     2737     2738 1
    6875     3783     3784 1
    6876     1745     1743 1
    6877     5030     5032 1
    6878     3428     3431 1
    6879     1755     1758 1
    6880     5051     5054 1
    6881     7061     7063 1
    6882    10066    10068 1
    6883     9487     9489 1
    6884     1755     1757 1
    6885     9058     9060 1
    6886     7030     7032 1
    6887     9562     9564 1
    6888     8026     8027 1
    6889     4848     4850 1
    6890     9940     9943 1
    6891     4644     4647 1
    6892     6623     6626 1
    6893     7168     7171 1
    6894     3939     3937 1
    6895     1353     1355 1
    6896     3091     3094 1
    6897      894      896 1
    6898     2356     2358 1
    6899     5079     5081 1
    6900     5048     5050 1
    6901     9601     9604 1
    6902     9097     9100 1
    6903     8593     8596 1
    6904     8089     8092 1
    6905     2100     2103 1
    6906     4545     4558 1
    6907     4517     4520 1
    6908     3570     3574 1
    6909     4066     4007 1
    6910      888      885 1
    6911     2103     2105 1
    6912     3468     3471 1
    6913     2931     2932 1
    6914     2900     2901 1
    6915      915      912 1
    6916     8128     8130 1
    6917     8632     8634 1
    6918     5212     5214 1
    6919     5181     5183 1
    6920     3589     3591 1
    6921     9229     9231 1
    6922     6339     6341 1
    6923     6978     6981 1
    6924     1118     1119 1
    6925      535      536 1
    6926     4293     4295 1
    6927     6897     6900 1
    6928     9706     9707 1
    6929     8698     8699 1
    6930     1356     1353 1
    6931     8806     8807 1
    6932     7573     7574 1
    6933     9814     9815 1
    6934     2439     2440 1
    6935     9310     9311 1
    6936     1866     1867 1
    6937     6904     6906 1
    6938     2163     2166 1
    6939     9397     9400 1
    6940     3233     3234 1
    6941     2598     2599 1
    6942     7843     7844 1
    6943     6284     6287 1
    6944     6925     6922 1
    6945     3905     3903 1
    6946     4894     4897 1
    6947     4097     4099 1
    6948     8476     8479 1
    6949      637      639 1
    6950     8980     8983 1
    6951     4925     4928 1
    6952     1220     1222 1
    6953     5529     5532 1
    6954     2477     2480 1
    6955     1063     1065 1
    6956     7231     7233 1
    6957     1378     1381 1
    6958     1351     1350 1
    6959     7735     7737 1
    6960     4801     4802 1
    6961     4166     4167 1
    6962      214      216 1
    6963     8614     8613 1
    6964     8782     8785 1
    6965     7774     7777 1
    6966     1701     1698 1
    6967     7612     7614 1
    6968      206      205 1
    6969      668      671 1
    6970      749      750 1
    6971     8887     8888 1
    6972     9391     9392 1
    6973      178      181 1
    6974     7825     7826 1
    6975     1344     1347 1
    6976     7546     7547 1
    6977     3215     3216 1
    6978     7591     7594 1
    6979     7531     7533 1
    6980     2390     2391 1
    6981     3184     3185 1
    6982     8287     8289 1
    6983     9295     9297 1
    6984     8791     8793 1
    6985     2048     2045 1
    6986      634      637 1
    6987      689      690 1
    6988     6276     6278 1
    6989     9826     9828 1
    6990     1248     1245 1
    6991     8536     8537 1
    6992     1393     1395 1
    6993      327      326 1
    6994     7852     7794 1
    6995      347      350 1
    6996     9268     9271 1
    6997     1329     1330 1
    6998     3378     3379 1
    6999     4091     4092 1
    7000     9913     9915 1
    7001     8401     8403 1
    7002     4755     4758 1
    7003      378      381 1
    7004     6459     6462 1
    7005     9970     9972 1
    7006     1069     1066 1
    7007     8923     8925 1
    7008      127      129 1
    7009     6218     6220 1
    7010     3904     3903 1
    7011     7279     7280 1
    7012     1057     1058 1
    7013      432      434 1
    7014     7342     7343 1
    7015     7804     7805 1
    7016     5734     5737 1
    7017     8167     8168 1
    7018     9493     9494 1
    7019     6833     6834 1
    7020      223      225 1
    7021     5638     5639 1
    7022     5882     5883 1
    7023     1752     1755 1
    7024     9484     9487 1
    7025     2671     2672 1
    7026     5913     5914 1
    7027     3870     3873 1
    7028     6542     6533 1
    7029      976      979 1
    7030    10228    10230 1
    7031     9220     9222 1
    7032     8212     8214 1
    7033     9724     9726 1
    7034     3779     3776 1
    7035     4115     4117 1
    7036     6410     6412 1
    7037      148      143 1
    7038     3622     3625 1
    7039      578      579 1
    7040     4493     4494 1
    7041     4462     4463 1
    7042     6197     6198 1
    7043      625      626 1
    7044     6583     6584 1
    7045     6166     6167 1
    7046     2955     2956 1
    7047     8752     8753 1
    7048     4221     4223 1
    7049     2079     2081 1
    7050     3477     3479 1
    7051     4408     4410 1
    7052     9256     9257 1
    7053     4825     4827 1
    7054      698      700 1
    7055      454      461 1
    7056     6296     6298 1
    7057     1306     1313 1
    7058     1813     1815 1
    7059     5091     5094 1
    7060     4202     4205 1
    7061     3410     3409 1
    7062     4088     4091 1
    7063     2465     2468 1
    7064     3375     3378 1
    7065     3795     3796 1
    7066     1671     1674 1
    7067     1520     1517 1
    7068       39       40 1
    7069     2094     2095 1
    7070     3523     3524 1
    7071     4236     4237 1
    7072     5137     5138 1
    7073     3986     3988 1
    7074      616      618 1
    7075     6471     6472 1
    7076     3366     3367 1
    7077     3335     3336 1
    7078     3733     3731 1
    7079     1372     1369 1
    7080      933      934 1
    7081       39       42 1
    7082     3166     3167 1
    7083     5511     5512 1
    7084     5480     5481 1
    7085     7756     7757 1
    7086     7393     7396 1
    7087     2505     2506 1
    7088     9985     9986 1
    7089     8977     8978 1
    7090     3109     3110 1
    7091    10030    10031 1
    7092     9526     9527 1
    7093     3010     3012 1
    7094     7336     7338 1
    7095     7792     7735 1
    7096     8557     8554 1
    7097     5113     5118 1
    7098     6163     6164 1
    7099     6798     6799 1
    7100     4039     4040 1
    7101     7948     7949 1
    7102    10243    10244 1
    7103      877      878 1
    7104     2813     2814 1
    7105     9235     9236 1
    7106     6131     6132 1
    7107     9739     9740 1
    7108     8206     8208 1
    7109      949      952 1
    7110     3816     3818 1
    7111     5255     5260 1
    7112     5526     5528 1
    7113     3746     3749 1
    7114      828      829 1
    7115     8377     8378 1
    7116     9889     9890 1
    7117     2970     2973 1
    7118     7006     7009 1
    7119     4477     4480 1
    7120     1541     1544 1
    7121     8119     8122 1
    7122     7768     7771 1
    7123     7651     7654 1
    7124       72       75 1
    7125     9979     9982 1
    7126     5070     5072 1
    7127     5771     5774 1
    7128     5740     5743 1
    7129     2211     2208 1
    7130     7195     7198 1
    7131     4100     4101 1
    7132      677      680 1
    7133     1927     1928 1
    7134     3387     3388 1
    7135     2692     2695 1
    7136     5024     5027 1
    7137     6441     6444 1
    7138     1729     1735 1
    7139     9844     9845 1
    7140     8257     8258 1
    7141     5366     5368 1
    7142      952      954 1
    7143     9769     9770 1
    7144     8761     8762 1
    7145     4980     4971 1
    7146      946      943 1
    7147     9547     9550 1
    7148       25       21 1
    7149     3640     3581 1
    7150      574      576 1
    7151     2382     2381 1
    7152     1263     1266 1
    7153     6239     6241 1
    7154     7018     7021 1
    7155     8974     8976 1
    7156     3436     3438 1
    7157     6392     6394 1
    7158      507      510 1
    7159     1121     1124 1
    7160      825      828 1
    7161     8374     8377 1
    7162     2158     2165 1
    7163     6478     6481 1
    7164     1138     1141 1
    7165     9886     9889 1
    7166     3804     3807 1
    7167     9747     9749 1
    7168     8235     8237 1
    7169     9565     9566 1
    7170     3937     3940 1
    7171     4399     4400 1
    7172     5810     5811 1
    7173     5487     5488 1
    7174    10219    10220 1
    7175     8950     8951 1
    7176     4674     4675 1
    7177     6139     6140 1
    7178     8446     8447 1
    7179     2245     2246 1
    7180     6873     6875 1
    7181     1254     1256 1
    7182     5169     5171 1
    7183      121      123 1
    7184     8098     8101 1
    7185     8615     8613 1
    7186     7441     7442 1
    7187     3054     3055 1
    7188     5196     5197 1
    7189      309      315 1
    7190     5227     5228 1
    7191     4604     4605 1
    7192     4635     4636 1
    7193     5555     5556 1
    7194     7957     7958 1
    7195     6320     6323 1
    7196     3033     3035 1
    7197      646      648 1
    7198     2758     2760 1
    7199     1175     1177 1
    7200     2888     2890 1
    7201     6560     6567 1
    7202     2665     2668 1
    7203     3759     3758 1
    7204     3459     3461 1
    7205    10042    10043 1
    7206     9034     9035 1
    7207     8923     8924 1
    7208     7726     7668 1
    7209     7672     7675 1
    7210     1384     1386 1
    7211     3980     3978 1
    7212     4242     4245 1
    7213      596      599 1
    7214     7531     7534 1
    7215     1109     1111 1
    7216     6172     6174 1
    7217     5435     5437 1
    7218     9967     9968 1
    7219     8959     8960 1
    7220     8455     8456 1
    7221     2871     2872 1
    7222     1422     1423 1
    7223     4166     4168 1
    7224     4801     4803 1
    7225     8890     8891 1
    7226     7882     7883 1
    7227     9898     9899 1
    7228     8407     8409 1
    7229     9919     9921 1
    7230     1356     1358 1
    7231     3326     3328 1
    7232     1695     1697 1
    7233     5468     5470 1
    7234     3775     3773 1
    7235     5372     5374 1
    7236     2996     2998 1
    7237      248      245 1
    7238     8422     8365 1
    7239      907      906 1
    7240     2317     2318 1
    7241     5888     5889 1
    7242     6975     6980 1
    7243     5493     5495 1
    7244     5462     5464 1
    7245     4668     4670 1
    7246     3719     3717 1
    7247     6372     6374 1
    7248     2842     2845 1
    7249      109      110 1
    7250     6804     6805 1
    7251     2958     2959 1
    7252     2149     2147 1
    7253     1167     1168 1
    7254     8359     8360 1
    7255     1153     1154 1
    7256     9367     9368 1
    7257     9463     9464 1
    7258     7855     7856 1
    7259     5293     5296 1
    7260     8575     8578 1
    7261     2854     2841 1
    7262    10216    10219 1
    7263     4261     4262 1
    7264     3925     3922 1
    7265     8962     8964 1
    7266     6940     6942 1
    7267     9481     9482 1
    7268     6145     6146 1
    7269     8962     8965 1
    7270     3094     3096 1
    7271     2900     2902 1
    7272     9970     9973 1
    7273     9382     9379 1
    7274     8878     8875 1
    7275     9160     9162 1
    7276     1411     1413 1
    7277     4344     4346 1
    7278     2931     2933 1
    7279     8764     8766 1
    7280     2121     2124 1
    7281     4178     4181 1
    7282       25       31 1
    7283      446      447 1
    7284     5715     5708 1
    7285     2740     2741 1
    7286     1921     1922 1
    7287     4644     4645 1
    7288     4613     4614 1
    7289     8185     8186 1
    7290     4338     4339 1
    7291     2190     2191 1
    7292     7279     7281 1
    7293     1057     1059 1
    7294     7468     7469 1
    7295     2860     2864 1
    7296     4430     4431 1
    7297     4619     4620 1
    7298     6484     6487 1
    7299     4703     4708 1
    7300     7076     7079 1
    7301     1866     1868 1
    7302      779      781 1
    7303     9175     9177 1
    7304     1951     1949 1
    7305     8731     8734 1
    7306     8227     8230 1
    7307     6659     6662 1
    7308     1082     1085 1
    7309      369      368 1
    7310     9895     9897 1
    7311     2109     2106 1
    7312     3918     3915 1
    7313     8851     8854 1
    7314     9859     9862 1
    7315     9355     9358 1
    7316     8347     8350 1
    7317     6719     6722 1
    7318     1186     1184 1
    7319     5539     5540 1
    7320     2786     2788 1
    7321     6254     6256 1
    7322     1248     1250 1
    7323     4550     4552 1
    7324     6699     6701 1
    7325      628      630 1
    7326     2566     2568 1
    7327     3106     3108 1
    7328     7183     7185 1
    7329     5523     5525 1
    7330     2755     2757 1
    7331     4653     4655 1
    7332      290      293 1
    7333     2708     2711 1
    7334     7429     7430 1
    7335     1445     1446 1
    7336      257      258 1
    7337     6537     6534 1
    7338     9760     9762 1
    7339     8248     8250 1
    7340     1053     1051 1
    7341     7300     7301 1
    7342     7990     7991 1
    7343     7189     7186 1
    7344     3651     3650 1
    7345     9235     9232 1
    7346    10021    10022 1
    7347     1075     1072 1
    7348      413      411 1
    7349     4770     4773 1
    7350      686      688 1
    7351     5734     5736 1
    7352     6925     6927 1
    7353     2846     2849 1
    7354     5410     5413 1
    7355      617      616 1
    7356     2405     2406 1
    7357     8344     8345 1
    7358     5830     5828 1
    7359      167      168 1
    7360     2999     3001 1
    7361     5925     5927 1
    7362     5100     5102 1
    7363     1564     1566 1
    7364     8728     8730 1
    7365    10240    10242 1
    7366      269      271 1
    7367     3604     3606 1
    7368      807      810 1
    7369     1625     1627 1
    7370     6116     6118 1
    7371     8824     8827 1
    7372     2625     2628 1
    7373     1049     1048 1
    7374     4505     4507 1
    7375     4692     4694 1
    7376    10093    10095 1
    7377     5574     5576 1
    7378     4456     4459 1
    7379     8581     8583 1
    7380     2909     2912 1
    7381     4447     4450 1
    7382     4447     4449 1
    7383     9841     9843 1
    7384     2909     2911 1
    7385     7144     7146 1
    7386      248      251 1
    7387     8554     8556 1
    7388     5432     5435 1
    7389     8530     8531 1
    7390     9538     9539 1
    7391     2431     2433 1
    7392      955      958 1
    7393     6635     6638 1
    7394     8176     8179 1
    7395     6577     6580 1
    7396     2335     2332 1
    7397      704      707 1
    7398     4208     4149 1
    7399     1572     1574 1
    7400       69       71 1
    7401     4746     4749 1
    7402     6866     6864 1
    7403       54       55 1
    7404     7342     7344 1
    7405     4248     4249 1
    7406     4366     4368 1
    7407      659      656 1
    7408     4885     4887 1
    7409      286      289 1
    7410     5548     5551 1
    7411     7012     7013 1
    7412     5580     5583 1
    7413     7582     7583 1
    7414      828      831 1
    7415     8233     8234 1
    7416     9241     9242 1
    7417     2184     2185 1
    7418     8737     8738 1
    7419     6061     6062 1
    7420     3773     3776 1
    7421     9325     9328 1
    7422     7416     7417 1
    7423     1837     1838 1
    7424     4070     4073 1
    7425     7330     7331 1
    7426     9805     9806 1
    7427     9301     9302 1
    7428     4094     4096 1
    7429      578      580 1
    7430     6197     6199 1
    7431     4493     4495 1
    7432     4462     4464 1
    7433     6166     6168 1
    7434     6675     6680 1
    7435     2955     2957 1
    7436     2677     2678 1
    7437     9349     9350 1
    7438     8845     8846 1
    7439     8365     8368 1
    7440     4987     4988 1
    7441     4067     4068 1
    7442     5342     5343 1
    7443     3502     3503 1
    7444     8341     8342 1
    7445     6713     6714 1
    7446     5465     5466 1
    7447     6659     6660 1
    7448      517      519 1
    7449     3418     3421 1
    7450     5719     5722 1
    7451     2752     2755 1
    7452     4650     4653 1
    7453     7576     7579 1
    7454     3520     3523 1
    7455     2091     2094 1
    7456     4233     4236 1
    7457     1050     1048 1
    7458     8566     8569 1
    7459     3792     3794 1
    7460     6471     6473 1
    7461     2526     2523 1
    7462     5287     5289 1
    7463     2749     2752 1
    7464     9550     9553 1
    7465     1989     1998 1
    7466     1375     1378 1
    7467     6426     6427 1
    7468     1746     1749 1
    7469     1511     1512 1
    7470     7321     7322 1
    7471     9085     9086 1
    7472     7756     7758 1
    7473     1076     1075 1
    7474     1369     1371 1
    7475     3138     3141 1
    7476     6534     6536 1
    7477     6520     6523 1
    7478     8092     8094 1
    7479     8596     8598 1
    7480     9751     9754 1
    7481     8239     8242 1
    7482     8218     8221 1
    7483     8722     8725 1
    7484     9730     9733 1
    7485      798      801 1
    7486     7420     7423 1
    7487     1353     1354 1
    7488     6015     6018 1
    7489      247      245 1
    7490     2746     2749 1
    7491     8344     8341 1
    7492     8032     8033 1
    7493     9544     9545 1
    7494     5885     5887 1
    7495     3977     3990 1
    7496     1535     1538 1
    7497     3896     3894 1
    7498     2431     2432 1
    7499     7123     7126 1
    7500     7300     7303 1
    7501     8026     8029 1
    7502     3589     3592 1
    7503     5212     5215 1
    7504     5181     5184 1
    7505     2792     2793 1
    7506     4109     4110 1
    7507     3396     3397 1
    7508     2181     2178 1
    7509     2008     2009 1
    7510     5275     5279 1
    7511    10036    10037 1
    7512     9028     9029 1
    7513     9532     9533 1
    7514     5109     5112 1
    7515     1323     1326 1
    7516     2411     2414 1
    7517     9154     9155 1
    7518     9289     9292 1
    7519     9658     9659 1
    7520     2292     2295 1
    7521     4909     4912 1
    7522     6644     6647 1
    7523     7699     7700 1
    7524     4422     4423 1
    7525      680      682 1
    7526     6635     6636 1
    7527     5725     5726 1
    7528     4317     4320 1
    7529     5777     5780 1
    7530     1138     1137 1
    7531     7318     7321 1
    7532     6997     7000 1
    7533     6212     6214 1
    7534     6181     6183 1
    7535      613      614 1
    7536     8824     8821 1
    7537     4867     4868 1
    7538     9418     9420 1
    7539     8914     8916 1
    7540     6345     6348 1
    7541     1526     1527 1
    7542     2924     2925 1
    7543     8686     8687 1
    7544     3372     3373 1
    7545     9694     9695 1
    7546     4085     4086 1
    7547     5314     5315 1
    7548     1468     1469 1
    7549     9679     9621 1
    7550     3937     3934 1
    7551       90       31 1
    7552     8464     8467 1
    7553     3344     3347 1
    7554     8968     8971 1
    7555     3100     3103 1
    7556     3320     3323 1
    7557     7177     7180 1
    7558     3735     3734 1
    7559     4919     4922 1
    7560     3181     3183 1
    7561     7822     7824 1
    7562     2662     2664 1
    7563     6276     6279 1
    7564     5668     5671 1
    7565     9826     9829 1
    7566     3928     3930 1
    7567     1746     1747 1
    7568     5073     5074 1
    7569     2502     2503 1
    7570     5042     5043 1
    7571      275      276 1
    7572     9478     9479 1
    7573     1559     1556 1
    7574     2274     2277 1
    7575     4873     4874 1
    7576     9481     9483 1
    7577     6145     6147 1
    7578     1153     1158 1
    7579     6490     6493 1
    7580     7522     7525 1
    7581     6568     6570 1
    7582     9442     9444 1
    7583     4972     4974 1
    7584     9004     9006 1
    7585     5039     5042 1
    7586     6752     6753 1
    7587     8020     8023 1
    7588     8524     8527 1
    7589     5997     5999 1
    7590     2474     2475 1
    7591     8473     8474 1
    7592     7186     7187 1
    7593     5777     5774 1
    7594     5746     5743 1
    7595     9007     9008 1
    7596    10015    10016 1
    7597     8503     8504 1
    7598     3015     3016 1
    7599     4545     4554 1
    7600     9565     9562 1
    7601     5671     5672 1
    7602     9511     9512 1
    7603     9904     9907 1
    7604     2163     2165 1
    7605     1529     1530 1
    7606     3742     3740 1
    7607     9088     9089 1
    7608     2366     2367 1
    7609     7660     7661 1
    7610     8650     8653 1
    7611    10177    10180 1
    7612     1924     1926 1
    7613     9169     9172 1
    7614     2749     2751 1
    7615     8665     8668 1
    7616     3805     3804 1
    7617     8902     8905 1
    7618     9799     9802 1
    7619     8692     8695 1
    7620     1367     1366 1
    7621      267      266 1
    7622     1417     1418 1
    7623     9616     9617 1
    7624     2786     2787 1
    7625     6227     6230 1
    7626     8104     8105 1
    7627     3897     3900 1
    7628     2445     2446 1
    7629     3829     3828 1
    7630     4064     4066 1
    7631     6151     6154 1
    7632     1563     1568 1
    7633     9589     9592 1
    7634     7003     7006 1
    7635     7798     7801 1
    7636     7117     7120 1
    7637     3486     3489 1
    7638     1725     1729 1
    7639     6975     6977 1
    7640     8550     8552 1
    7641      272      274 1
    7642     4045     4047 1
    7643     9145     9146 1
    7644      955      957 1
    7645     9265     9266 1
    7646     2039     2041 1
    7647     7405     7407 1
    7648     3961     3958 1
    7649     7252     7255 1
    7650     8539     8542 1
    7651     8158     8160 1
    7652     7519     7522 1
    7653     4132     4133 1
    7654    10204    10205 1
    7655     6345     6346 1
    7656     3973     3975 1
    7657     9493     9436 1
    7658      159      160 1
    7659      173      174 1
    7660     4151     4153 1
    7661     6830     6832 1
    7662     2211     2212 1
    7663     2653     2656 1
    7664     3723     3720 1
    7665     1714     1705 1
    7666     1622     1625 1
    7667     6042     6044 1
    7668     1718     1720 1
    7669      665      667 1
    7670     1196     1193 1
    7671     6552     6555 1
    7672     3870     3872 1
    7673     8854     8855 1
    7674     8350     8351 1
    7675     9358     9359 1
    7676     9862     9863 1
    7677     6722     6723 1
    7678     4450     4451 1
    7679     1483     1484 1
    7680     3583     3584 1
    7681     4299     4301 1
    7682     1761     1762 1
    7683     2396     2397 1
    7684     7067     7068 1
    7685     6517     6518 1
    7686      779      782 1
    7687     6598     6595 1
    7688     6481     6482 1
    7689     6968     6970 1
    7690     2708     2699 1
    7691     1847     1860 1
    7692     1894     1896 1
    7693     2584     2586 1
    7694     8659     8662 1
    7695     6523     6526 1
    7696      742      741 1
    7697     5239     5240 1
    7698     4360     4361 1
    7699     4329     4330 1
    7700     1072     1073 1
    7701     5894     5896 1
    7702     1535     1536 1
    7703     3760     3758 1
    7704     6444     6446 1
    7705     7000     7001 1
    7706     6012     6009 1
    7707     3535     3538 1
    7708     7174     7177 1
    7709     3097     3100 1
    7710     4199     4201 1
    7711     2882     2884 1
    7712     1538     1540 1
    7713     4344     4347 1
    7714     8932     8933 1
    7715     5539     5552 1
    7716     5580     5581 1
    7717     3780     3781 1
    7718     5764     5767 1
    7719     5995     5996 1
    7720     1220     1217 1
    7721     3683     3680 1
    7722     2631     2633 1
    7723     6818     6820 1
    7724     1306     1307 1
    7725     2273     2286 1
    7726      148      149 1
    7727     8833     8834 1
    7728     3251     3252 1
    7729     7225     7226 1
    7730     2459     2460 1
    7731     1665     1666 1
    7732    10021    10023 1
    7733     6855     6856 1
    7734     4082     4083 1
    7735     9787     9789 1
    7736     7141     7142 1
    7737     9838     9839 1
    7738     2428     2429 1
    7739     5916     5917 1
    7740      239      240 1
    7741     5287     5288 1
    7742     2405     2407 1
    7743     3737     3738 1
    7744     8344     8346 1
    7745     6100     6101 1
    7746     1275     1276 1
    7747     3598     3599 1
    7748      301      303 1
    7749     6287     6289 1
    7750     4583     4585 1
    7751     1619     1620 1
    7752     2562     2565 1
    7753     4572     4579 1
    7754     6798     6800 1
    7755     8104     8046 1
    7756     6163     6165 1
    7757     3865     3859 1
    7758     1254     1257 1
    7759     6873     6876 1
    7760     5169     5172 1
    7761      121      124 1
    7762     6326     6329 1
    7763     3390     3393 1
    7764      924      921 1
    7765     6357     6360 1
    7766     7264     7265 1
    7767     4641     4644 1
    7768     4248     4250 1
    7769     7249     7252 1
    7770     3949     3946 1
    7771     2307     2300 1
    7772     7378     7380 1
    7773     1510     1451 1
    7774     3828     3825 1
    7775     3257     3259 1
    7776     2019     2078 1
    7777     7981     7924 1
    7778     1384     1385 1
    7779     2363     2366 1
    7780     6955     6952 1
    7781     7993     7990 1
    7782     2066     2063 1
    7783     3909     3912 1
    7784     7219     7222 1
    7785     5984     5988 1
    7786     2415     2416 1
    7787     1014     1017 1
    7788     3698     3699 1
    7789     1300     1298 1
    7790     6789     6791 1
    7791     1695     1698 1
    7792     1952     1953 1
    7793     1468     1471 1
    7794     4541     4542 1
    7795     1550     1547 1
    7796     1946     1948 1
    7797     6671     6673 1
    7798     7687     7689 1
    7799     6592     6594 1
    7800     1677     1679 1
    7801     9115     9058 1
    7802     1314     1317 1
    7803     8893     8896 1
    7804     7227     7229 1
    7805     2206     2205 1
    7806     6807     6808 1
    7807     1138     1139 1
    7808     6997     6998 1
    7809     9550     9552 1
    7810     9046     9048 1
    7811     4940     4943 1
    7812     4381     4382 1
    7813     2915     2916 1
    7814     2712     2713 1
    7815     3772     3770 1
    7816     6048     6050 1
    7817     7372     7374 1
    7818     5444     5446 1
    7819     6139     6142 1
    7820     9793     9795 1
    7821     8281     8283 1
    7822     6749     6752 1
    7823     1685     1683 1
    7824     1036     1033 1
    7825     2152     2147 1
    7826     6139     6141 1
    7827     6986     6993 1
    7828      598      596 1
    7829     8317     8318 1
    7830     6224     6225 1
    7831     8821     8822 1
    7832     4891     4894 1
    7833     2347     2348 1
    7834     9325     9326 1
    7835     5118     5120 1
    7836     1964     1966 1
    7837     3450     3453 1
    7838      409      408 1
    7839     5535     5537 1
    7840       28       31 1
    7841     6734     6736 1
    7842      930      932 1
    7843     4546     4548 1
    7844     2674     2677 1
    7845     2273     2278 1
    7846     3015     3017 1
    7847     4094     4097 1
    7848     8215     8218 1
    7849     8695     8698 1
    7850     9727     9730 1
    7851     2955     2958 1
    7852     5891     5888 1
    7853     6686     6684 1
    7854     6934     6937 1
    7855     7645     7646 1
    7856     1408     1409 1
    7857     4285     4291 1
    7858     8161     8162 1
    7859     9259     9262 1
    7860     7930     7932 1
    7861     7201     7203 1
    7862     5774     5776 1
    7863     6928     6930 1
    7864     1885     1887 1
    7865     5743     5745 1
    7866     9160     9163 1
    7867     2520     2522 1
    7868     3782     3723 1
    7869      133      136 1
    7870     2456     2453 1
    7871     1320     1323 1
    7872       45       42 1
    7873     3242     3243 1
    7874     7852     7853 1
    7875     1526     1528 1
    7876     2924     2926 1
    7877     5946     5947 1
    7878     7585     7586 1
    7879      872      876 1
    7880     4215     4216 1
    7881     3471     3472 1
    7882     9853     9854 1
    7883     1798     1799 1
    7884     5619     5620 1
    7885     5015     5016 1
    7886     8002     8003 1
    7887     1069     1071 1
    7888     2317     2319 1
    7889     5888     5890 1
    7890     5978     5979 1
    7891     4752     4753 1
    7892     1582     1583 1
    7893     8854     8857 1
    7894     9358     9361 1
    7895     3511     3514 1
    7896     3586     3583 1
    7897     9280     9282 1
    7898      454      457 1
    7899     7024     7027 1
    7900     9022     9024 1
    7901     3925     3928 1
    7902     2059     2057 1
    7903     4215     4218 1
    7904     1236     1238 1
    7905     5786     5788 1
    7906     2544     2547 1
    7907     1746     1748 1
    7908     9478     9480 1
    7909     5073     5075 1
    7910     5042     5044 1
    7911     5677     5679 1
    7912      550      553 1
    7913     2013     2009 1
    7914     8899     8901 1
    7915     8116     8118 1
    7916     9907     9909 1
    7917     8395     8397 1
    7918     7627     7630 1
    7919     5526     5529 1
    7920     2000     1998 1
    7921     7036     7038 1
    7922     8329     8330 1
    7923     8050     8051 1
    7924     6236     6237 1
    7925     6511     6512 1
    7926      940      941 1
    7927     7960     7961 1
    7928     4638     4639 1
    7929     3155     3156 1
    7930     2746     2747 1
    7931     3291     3292 1
    7932     6867     6868 1
    7933     2550     2551 1
    7934     7189     7190 1
    7935     6629     6630 1
    7936     1603     1601 1
    7937     5187     5190 1
    7938     7432     7435 1
    7939     3381     3384 1
    7940     6265     6270 1
    7941     6934     6936 1
    7942     8503     8505 1
    7943    10015    10017 1
    7944     9007     9009 1
    7945     9511     9513 1
    7946     5671     5673 1
    7947     4007     4001 1
    7948      412      411 1
    7949     7975     7976 1
    7950     3305     3306 1
    7951      758      760 1
    7952     7444     7447 1
    7953     4990     4994 1
    7954     6589     6590 1
    7955     8308     8311 1
    7956     8812     8815 1
    7957     7094     7097 1
    7958     3564     3567 1
    7959      320      317 1
    7960     8068     8071 1
    7961     4280     4282 1
    7962     6493     6495 1
    7963     2242     2243 1
    7964       42       44 1
    7965     4190     4193 1
    7966     2048     2051 1
    7967     4789     4791 1
    7968     2761     2762 1
    7969     2723     2725 1
    7970     9670     9673 1
    7971     6549     6554 1
    7972     1257     1259 1
    7973     7794     7796 1
    7974     6876     6878 1
    7975     9274     9277 1
    7976     8770     8773 1
    7977      559      560 1
    7978      735      736 1
    7979     1000     1001 1
    7980     1103     1105 1
    7981      304      307 1
    7982     7759     7761 1
    7983     2131     2136 1
    7984     8113     8114 1
    7985    10129    10130 1
    7986     3997     4001 1
    7987     2779     2782 1
    7988      254      255 1
    7989     7258     7260 1
    7990     9049     9051 1
    7991     1973     1975 1
    7992       23       20 1
    7993     2492     2494 1
    7994     8845     8848 1
    7995     6305     6308 1
    7996     9529     9531 1
    7997     9025     9027 1
    7998    10033    10035 1
    7999     5650     5652 1
    8000     6931     6933 1
    8001     7255     7258 1
    8002      668      665 1
    8003     6302     6305 1
    8004     1459     1460 1
    8005     6841     6842 1
    8006     4958     4961 1
    8007     4786     4787 1
    8008     7105     7108 1
    8009     7642     7644 1
    8010     6607     6610 1
    8011      446      449 1
    8012     1199     1202 1
    8013     8956     8959 1
    8014     6722     6724 1
    8015     9358     9360 1
    8016     8854     8856 1
    8017     8350     8352 1
    8018     7744     7747 1
    8019     9862     9864 1
    8020     2008     2011 1
    8021     1157     1161 1
    8022     8140     8142 1
    8023     7450     7451 1
    8024     9931     9933 1
    8025    10012    10014 1
    8026     8928     8929 1
    8027     9432     9433 1
    8028     6783     6784 1
    8029     6563     6564 1
    8030     4647     4648 1
    8031     3054     3051 1
    8032     9247     9248 1
    8033     8743     8744 1
    8034     4998     5005 1
    8035     2436     2431 1
    8036     6675     6684 1
    8037     1514     1511 1
    8038      294      285 1
    8039     4671     4672 1
    8040      604      606 1
    8041     7594     7595 1
    8042      936      939 1
    8043     6789     6792 1
    8044     5398     5401 1
    8045     4390     4393 1
    8046     3891     3893 1
    8047     2677     2679 1
    8048     3502     3504 1
    8049     8845     8847 1
    8050     8341     8343 1
    8051     6713     6715 1
    8052     9349     9351 1
    8053     1130     1127 1
    8054     5256     5259 1
    8055     5801     5803 1
    8056     9202     9204 1
    8057     6351     6353 1
    8058     4138     4140 1
    8059    10210    10212 1
    8060     9673     9676 1
    8061     6181     6184 1
    8062     5429     5432 1
    8063     7615     7618 1
    8064     6212     6215 1
    8065     1303     1304 1
    8066     8497     8498 1
    8067     2401     2399 1
    8068     6616     6619 1
    8069     6242     6245 1
    8070     9259     9261 1
    8071     7600     7601 1
    8072     8608     8609 1
    8073     5357     5358 1
    8074     5326     5327 1
    8075     6151     6152 1
    8076     6265     6267 1
    8077     5768     5770 1
    8078     1979     1982 1
    8079      692      695 1
    8080     5694     5681 1
    8081     4230     4233 1
    8082     7162     7105 1
    8083     3671     3672 1
    8084     3166     3169 1
    8085     3949     3952 1
    8086      674      675 1
    8087     3030     3031 1
    8088     6810     6813 1
    8089     4972     4973 1
    8090     6983     6984 1
    8091     1547     1544 1
    8092      746      747 1
    8093      831      832 1
    8094      976      973 1
    8095     1135     1133 1
    8096     8554     8555 1
    8097     5940     5943 1
    8098     9595     9598 1
    8099     8587     8590 1
    8100     8773     8776 1
    8101     2557     2566 1
    8102     9442     9445 1
    8103       63       66 1
    8104     1770     1772 1
    8105     6418     6419 1
    8106     6224     6227 1
    8107     8989     8990 1
    8108     2486     2487 1
    8109      372      373 1
    8110      152      153 1
    8111     9253     9254 1
    8112     8749     8750 1
    8113     7555     7556 1
    8114     5807     5809 1
    8115     9208     9210 1
    8116     1961     1963 1
    8117     1872     1871 1
    8118     2644     2647 1
    8119     5961     5964 1
    8120     1687     1686 1
    8121     7731     7733 1
    8122     5566     5568 1
    8123     2190     2187 1
    8124      495      496 1
    8125     5897     5898 1
    8126     2411     2412 1
    8127     7567     7568 1
    8128     5708     5709 1
    8129     3668     3665 1
    8130     7978     7979 1
    8131     3308     3309 1
    8132     4714     4716 1
    8133     5728     5730 1
    8134     7552     7553 1
    8135     9709     9706 1
    8136     3586     3588 1
    8137     4934     4936 1
    8138     1837     1840 1
    8139     4100     4102 1
    8140     1927     1929 1
    8141     2601     2604 1
    8142     3387     3389 1
    8143     6423     6426 1
    8144     7091     7093 1
    8145     8809     8811 1
    8146     8305     8307 1
    8147     9817     9819 1
    8148     3702     3704 1
    8149     1175     1172 1
    8150     3675     3674 1
    8151     1226     1167 1
    8152     2595     2596 1
    8153     3199     3200 1
    8154     2144     2145 1
    8155     4561     4562 1
    8156     6743     6744 1
    8157     3149     3155 1
    8158     6840     6836 1
    8159     8428     8430 1
    8160     5175     5177 1
    8161     4296     4298 1
    8162     1689     1691 1
    8163     5867     5870 1
    8164     3393     3395 1
    8165     6459     6461 1
    8166      124      126 1
    8167     6490     6492 1
    8168     3564     3551 1
    8169      731      735 1
    8170     8044     7987 1
    8171     8518     8521 1
    8172     4427     4433 1
    8173     5903     5906 1
    8174     9952     9955 1
    8175     9448     9451 1
    8176     4804     4806 1
    8177     5705     5707 1
    8178     6529     6532 1
    8179     3456     3458 1
    8180      862      865 1
    8181     9001     8998 1
    8182      794      795 1
    8183     9382     9383 1
    8184     6807     6809 1
    8185     8878     8879 1
    8186     1138     1140 1
    8187     1556     1557 1
    8188     6997     6999 1
    8189      773      775 1
    8190     8446     8448 1
    8191     8950     8952 1
    8192     5487     5489 1
    8193     4399     4401 1
    8194     2245     2247 1
    8195     4674     4676 1
    8196     9283     9285 1
    8197     7064     7067 1
    8198      436      439 1
    8199     5140     5143 1
    8200     8779     8781 1
    8201     8830     8831 1
    8202     8326     8327 1
    8203     6538     6539 1
    8204     2199     2200 1
    8205     3425     3426 1
    8206     6320     6321 1
    8207     1848     1849 1
    8208     7294     7295 1
    8209     4474     4475 1
    8210     9019     9020 1
    8211     6795     6796 1
    8212     6849     6850 1
    8213      384      385 1
    8214     5274     5278 1
    8215     3444     3445 1
    8216     4792     4793 1
    8217      152      143 1
    8218     7861     7864 1
    8219     5363     5360 1
    8220     8464     8461 1
    8221     5122     5123 1
    8222     2731     2732 1
    8223     7537     7479 1
    8224     6972     6975 1
    8225     1595     1597 1
    8226     3696     3694 1
    8227     2384     2387 1
    8228     6601     6604 1
    8229     7312     7309 1
    8230      622      624 1
    8231      662      665 1
    8232     2468     2471 1
    8233     6039     6042 1
    8234     8656     8658 1
    8235     5060     5001 1
    8236     7753     7756 1
    8237     4830     4833 1
    8238     8152     8154 1
    8239     9120     9117 1
    8240     8890     8892 1
    8241     3544     3545 1
    8242     9832     9835 1
    8243     6755     6756 1
    8244     7882     7884 1
    8245     9898     9900 1
    8246     5610     5613 1
    8247     3802     3801 1
    8248     1684     1683 1
    8249     1430     1421 1
    8250      559      561 1
    8251      735      737 1
    8252     1563     1564 1
    8253     1000     1002 1
    8254     9310     9313 1
    8255      574      577 1
    8256     5946     5948 1
    8257     7585     7587 1
    8258     3586     3589 1
    8259      649      652 1
    8260     3996     3998 1
    8261     5900     5903 1
    8262     2195     2193 1
    8263     7888     7890 1
    8264     8392     8394 1
    8265     3899     3897 1
    8266     1019     1021 1
    8267     3962     3961 1
    8268     3144     3145 1
    8269     4366     4367 1
    8270      631      632 1
    8271      574      575 1
    8272     5628     5569 1
    8273     1214     1215 1
    8274     1130     1131 1
    8275     2408     2411 1
    8276     7079     7082 1
    8277     1863     1865 1
    8278     3567     3569 1
    8279     7564     7567 1
    8280     7183     7184 1
    8281     2393     2396 1
    8282     7771     7774 1
    8283     5836     5823 1
    8284     3889     3888 1
    8285     9430     9373 1
    8286     8995     8998 1
    8287     1146     1149 1
    8288     7638     7636 1
    8289     8512     8513 1
    8290     9520     9521 1
    8291    10024    10025 1
    8292     2671     2668 1
    8293     2051     2052 1
    8294     4193     4194 1
    8295     2876     2877 1
    8296     9490     9432 1
    8297     1973     1976 1
    8298     9625     9626 1
    8299     8617     8618 1
    8300     5490     5493 1
    8301     2517     2519 1
    8302     4453     4454 1
    8303     3725     3726 1
    8304     2946     2947 1
    8305     1607     1609 1
    8306     5003     5005 1
    8307     6752     6755 1
    8308     7468     7470 1
    8309     4430     4432 1
    8310     4619     4621 1
    8311     6844     6851 1
    8312     4505     4502 1
    8313    10093    10090 1
    8314     2106     2103 1
    8315     7558     7561 1
    8316     2731     2733 1
    8317      427      428 1
    8318     5922     5923 1
    8319     5891     5892 1
    8320     5012     5013 1
    8321     2680     2681 1
    8322     6858     6859 1
    8323      834      837 1
    8324     4120     4121 1
    8325     5427     5428 1
    8326      423      424 1
    8327     8572     8574 1
    8328    10084    10086 1
    8329     5931     5932 1
    8330    10188    10189 1
    8331     8676     8677 1
    8332      946      948 1
    8333     9580     9582 1
    8334     5290     5292 1
    8335      115      116 1
    8336     6994     6996 1
    8337     4317     4319 1
    8338     2810     2812 1
    8339     1301     1298 1
    8340     5348     5351 1
    8341     4163     4166 1
    8342     5700     5702 1
    8343     9850     9853 1
    8344     1724     1727 1
    8345     8428     8431 1
    8346     4861     4863 1
    8347     8932     8935 1
    8348      628      631 1
    8349     4998     5001 1
    8350     8869     8870 1
    8351     9877     9878 1
    8352     8812     8813 1
    8353     1526     1529 1
    8354     7094     7095 1
    8355     9820     9821 1
    8356     3564     3565 1
    8357     8308     8309 1
    8358     2595     2598 1
    8359     8146     8148 1
    8360     8650     8652 1
    8361    10162    10164 1
    8362      996      999 1
    8363     8521     8522 1
    8364     6160     6162 1
    8365     5641     5643 1
    8366     1417     1420 1
    8367     3676     3674 1
    8368     9868     9810 1
    8369     8356     8298 1
    8370     3888     3885 1
    8371     4632     4635 1
    8372     2555     2553 1
    8373    10159    10161 1
    8374     3879     3882 1
    8375      585      586 1
    8376     8752     8755 1
    8377     3844     3847 1
    8378     3018     3020 1
    8379     6768     6769 1
    8380     6737     6738 1
    8381     2066     2067 1
    8382     1940     1941 1
    8383     4357     4358 1
    8384     9238     9240 1
    8385     2816     2818 1
    8386     1758     1761 1
    8387     8734     8736 1
    8388     8230     8232 1
    8389     4323     4325 1
    8390     5338     5341 1
    8391     7903     7900 1
    8392     1765     1764 1
    8393     8731     8732 1
    8394     5749     5750 1
    8395     2453     2454 1
    8396     5242     5239 1
    8397     8227     8228 1
    8398     2538     2539 1
    8399     1732     1739 1
    8400     5444     5447 1
    8401     8938     8935 1
    8402     3502     3505 1
    8403     8272     8273 1
    8404     4412     4415 1
    8405     3851     3856 1
    8406     1272     1269 1
    8407     6586     6587 1
    8408     7393     7394 1
    8409     1994     1995 1
    8410      607      610 1
    8411     4311     4314 1
    8412     4381     4384 1
    8413     3112     3113 1
    8414      109      106 1
    8415    10048    10049 1
    8416     8563     8565 1
    8417      529      530 1
    8418     2646     2587 1
    8419     8479     8480 1
    8420     8983     8984 1
    8421     2480     2481 1
    8422     4545     4546 1
    8423     5122     5113 1
    8424      758      755 1
    8425     7064     7066 1
    8426     7930     7933 1
    8427     7201     7204 1
    8428      483      486 1
    8429     1885     1888 1
    8430     2520     2523 1
    8431     5508     5505 1
    8432     5477     5474 1
    8433     1169     1172 1
    8434     2449     2442 1
    8435     7897     7900 1
    8436     9145     9148 1
    8437     7681     7683 1
    8438     2831     2833 1
    8439     9013     9016 1
    8440     9778     9781 1
    8441     8266     8269 1
    8442     3708     3706 1
    8443     3369     3370 1
    8444     7363     7364 1
    8445     8281     8284 1
    8446      175      177 1
    8447     7549     7550 1
    8448     5140     5141 1
    8449     7534     7536 1
    8450     4270     4271 1
    8451     4931     4932 1
    8452     4021     4022 1
    8453     2208     2209 1
    8454      730      732 1
    8455      921      922 1
    8456     7141     7144 1
    8457     9838     9841 1
    8458     2428     2431 1
    8459     1036     1038 1
    8460      468      470 1
    8461      396      393 1
    8462     7624     7627 1
    8463     9415     9418 1
    8464     8911     8914 1
    8465     6249     6254 1
    8466     6972     6973 1
    8467     4952     4953 1
    8468     3329     3330 1
    8469     3125     3138 1
    8470    10198    10199 1
    8471     4879     4880 1
    8472     3152     3153 1
    8473     9190     9191 1
    8474     2187     2188 1
    8475      317      318 1
    8476     5758     5759 1
    8477     7678     7679 1
    8478     9475     9476 1
    8479     7608     7605 1
    8480     9190     9193 1
    8481     6339     6342 1
    8482     7009     7011 1
    8483     9595     9597 1
    8484     1860     1862 1
    8485     6943     6946 1
    8486     5758     5761 1
    8487     8587     8589 1
    8488     8083     8085 1
    8489     1544     1546 1
    8490     5574     5577 1
    8491     3242     3245 1
    8492     2202     2204 1
    8493     8581     8584 1
    8494     6867     6870 1
    8495     1399     1400 1
    8496     1233     1236 1
    8497     5148     5151 1
    8498     5783     5786 1
    8499     8422     8423 1
    8500     1217     1214 1
    8501     7807     7810 1
    8502     5671     5674 1
    8503       14        1 1
    8504      652      654 1
    8505     5393     5390 1
    8506     6187     6184 1
    8507      495      497 1
    8508     5897     5899 1
    8509     5708     5710 1
    8510     2411     2413 1
    8511     5989     5995 1
    8512     7567     7569 1
    8513     6822     6825 1
    8514     1411     1414 1
    8515     2416     2419 1
    8516     9787     9790 1
    8517     7438     7441 1
    8518     5193     5196 1
    8519     4230     4231 1
    8520     3297     3298 1
    8521     7348     7349 1
    8522     2595     2597 1
    8523     3199     3201 1
    8524      162      163 1
    8525     5861     5862 1
    8526     5067     5068 1
    8527     2230     2233 1
    8528     4761     4762 1
    8529     4554     4555 1
    8530     4112     4113 1
    8531     6012     6014 1
    8532     4919     4916 1
    8533     6529     6530 1
    8534     3042     3045 1
    8535     8941     8944 1
    8536     4215     4217 1
    8537     3471     3473 1
    8538     9853     9855 1
    8539     1798     1800 1
    8540     1042     1044 1
    8541     4838     4829 1
    8542      136      137 1
    8543     7285     7287 1
    8544     4656     4653 1
    8545     9001     9004 1
    8546     7192     7195 1
    8547     2332     2329 1
    8548     8683     8685 1
    8549     8683     8686 1
    8550     7450     7453 1
    8551     1556     1558 1
    8552     6432     6435 1
    8553      320      323 1
    8554     8773     8775 1
    8555     9277     9279 1
    8556     2076     2078 1
    8557     5129     5131 1
    8558     3190     3192 1
    8559     2058     2057 1
    8560    10174    10175 1
    8561     8383     8384 1
    8562     9166     9167 1
    8563     3221     3223 1
    8564     8512     8514 1
    8565     9520     9522 1
    8566    10024    10026 1
    8567     1378     1379 1
    8568     7894     7895 1
    8569      849      850 1
    8570     9019     9021 1
    8571      236      239 1
    8572      701      703 1
    8573     2854     2856 1
    8574     5505     5507 1
    8575     3688     3686 1
    8576     6384     6386 1
    8577      199      200 1
    8578      384      386 1
    8579      782      783 1
    8580     4792     4794 1
    8581     3444     3446 1
    8582     7126     7129 1
    8583     8413     8415 1
    8584     1362     1364 1
    8585     7348     7290 1
    8586     5279     5280 1
    8587     1284     1286 1
    8588     1372     1374 1
    8589     3299     3300 1
    8590     4810     4812 1
    8591     3187     3190 1
    8592     5126     5129 1
    8593     8836     8839 1
    8594     5668     5670 1
    8595     3233     3236 1
    8596     7996     7999 1
    8597     9844     9847 1
    8598     4810     4813 1
    8599     2132     2134 1
    8600    10069    10072 1
    8601     3357     3360 1
    8602     2227     2229 1
    8603    10021    10024 1
    8604     2850     2852 1
    8605     8704     8706 1
    8606     8200     8202 1
    8607    10216    10218 1
    8608     8716     8717 1
    8609     3402     3403 1
    8610     6613     6614 1
    8611     1523     1520 1
    8612     3662     3665 1
    8613     8008     8009 1
    8614     3885     3886 1
    8615     1039     1040 1
    8616     8038     8040 1
    8617     9904     9905 1
    8618     6986     6989 1
    8619     8986     8987 1
    8620     1199     1196 1
    8621     9106     9109 1
    8622     5459     5461 1
    8623     1613     1615 1
    8624     8497     8500 1
    8625     2254     2256 1
    8626     6650     6652 1
    8627    10144    10145 1
    8628     9640     9641 1
    8629     9136     9137 1
    8630     4036     4038 1
    8631     6030     6033 1
    8632      266      269 1
    8633     2424     2425 1
    8634    10090    10091 1
    8635     1773     1775 1
    8636     4007     4008 1
    8637      417      419 1
    8638     7519     7520 1
    8639     2085     2086 1
    8640     4196     4197 1
    8641     4502     4503 1
    8642     4227     4228 1
    8643     6870     6873 1
    8644     7534     7537 1
    8645     3486     3488 1
    8646     3780     3783 1
    8647     7540     7483 1
    8648     4329     4326 1
    8649     9763     9764 1
    8650     8251     8252 1
    8651     9742     9684 1
    8652     1060     1063 1
    8653     3283     3288 1
    8654     3832     3831 1
    8655     8086     8089 1
    8656     6404     6407 1
    8657     3740     3741 1
    8658     5931     5934 1
    8659     4193     4195 1
    8660     2876     2878 1
    8661     2051     2053 1
    8662     7052     7053 1
    8663    10111    10112 1
    8664     9103     9104 1
    8665     4128     4129 1
    8666     9469     9470 1
    8667     2372     2373 1
    8668     6336     6338 1
    8669     1819     1822 1
    8670      656      657 1
    8671     2218     2219 1
    8672     6400     6401 1
    8673     9655     9656 1
    8674     8143     8144 1
    8675     6668     6670 1
    8676     7954     7955 1
    8677     7033     7036 1
    8678     6844     6847 1
    8679       35       33 1
    8680     6415     6417 1
    8681     3126     3129 1
    8682     3770     3773 1
    8683     3770     3767 1
    8684       13       10 1
    8685     8725     8728 1
    8686     1952     1954 1
    8687     5922     5924 1
    8688     5891     5893 1
    8689     7164     7167 1
    8690     5012     5014 1
    8691     2680     2682 1
    8692     2577     2581 1
    8693      101      100 1
    8694     5677     5678 1
    8695     7668     7671 1
    8696     2239     2236 1
    8697     6126     6129 1
    8698     3496     3499 1
    8699     6438     6439 1
    8700      103      104 1
    8701     7357     7360 1
    8702     6705     6706 1
    8703     5740     5741 1
    8704     5771     5772 1
    8705     7542     7543 1
    8706     6036     6033 1
    8707     6067     6064 1
    8708     5459     5462 1
    8709     7441     7444 1
    8710     9397     9398 1
    8711     5227     5230 1
    8712    10165    10167 1
    8713     9661     9663 1
    8714      211      213 1
    8715     3387     3390 1
    8716     4100     4103 1
    8717     1927     1930 1
    8718      214      215 1
    8719     8809     8812 1
    8720     7091     7094 1
    8721     9817     9820 1
    8722     8305     8308 1
    8723     1075     1078 1
    8724     5965     5966 1
    8725     7024     7025 1
    8726      585      587 1
    8727     1568     1571 1
    8728     3272     3275 1
    8729      178      180 1
    8730     1344     1346 1
    8731     9343     9345 1
    8732      492      494 1
    8733     8112     8109 1
    8734     5876     5877 1
    8735     6786     6787 1
    8736     3650     3653 1
    8737     4404     4405 1
    8738     1019     1015 1
    8739     7510     7513 1
    8740     2251     2254 1
    8741     1393     1394 1
    8742     9298     9301 1
    8743      686      689 1
    8744     3251     3254 1
    8745     1051     1048 1
    8746     2124     2126 1
    8747     5697     5699 1
    8748     2964     2966 1
    8749     4471     4473 1
    8750     3294     3297 1
    8751     1834     1831 1
    8752    10168    10171 1
    8753     9664     9667 1
    8754     5487     5490 1
    8755     2245     2248 1
    8756     7588     7591 1
    8757     9322     9319 1
    8758     2140     2131 1
    8759     7609     7612 1
    8760     5622     5625 1
    8761     9502     9503 1
    8762    10006    10007 1
    8763     8494     8495 1
    8764     6888     6891 1
    8765     4990     4991 1
    8766     2360     2361 1
    8767     4070     4071 1
    8768     3311     3313 1
    8769     3877     3876 1
    8770     6783     6786 1
    8771     8380     8382 1
    8772     9892     9894 1
    8773     7903     7906 1
    8774     3030     3033 1
    8775      698      699 1
    8776     2967     2964 1
    8777     6296     6297 1
    8778     4378     4381 1
    8779     5842     5846 1
    8780     5097     5098 1
    8781      329      330 1
    8782     7453     7454 1
    8783      281      282 1
    8784     1737     1740 1
    8785     3172     3173 1
    8786     2303     2297 1
    8787     3567     3572 1
    8788       39       41 1
    8789     2094     2096 1
    8790     3523     3525 1
    8791     4236     4238 1
    8792     5137     5139 1
    8793     4976     4971 1
    8794     7825     7827 1
    8795     7546     7548 1
    8796     2390     2392 1
    8797     3215     3217 1
    8798     3184     3186 1
    8799     1946     1949 1
    8800     8440     8443 1
    8801     7966     7969 1
    8802     4393     4396 1
    8803     6937     6940 1
    8804     7447     7450 1
    8805      562      565 1
    8806     7058     7060 1
    8807     7027     7029 1
    8808     5416     5419 1
    8809     4845     4847 1
    8810     4918     4916 1
    8811     1601     1604 1
    8812     7585     7588 1
    8813     5946     5949 1
    8814     2949     2951 1
    8815     5749     5752 1
    8816     3007     3008 1
    8817     7021     7022 1
    8818     6227     6228 1
    8819     3888     3891 1
    8820     9217     9219 1
    8821     8251     8254 1
    8822     8152     8155 1
    8823     6268     6271 1
    8824     6499     6502 1
    8825     4169     4170 1
    8826      486      489 1
    8827     7920     7921 1
    8828     4995     5001 1
    8829     6626     6627 1
    8830     2581     2582 1
    8831     4891     4892 1
    8832     2076     2077 1
    8833     8356     8357 1
    8834     6728     6729 1
    8835     9868     9869 1
    8836     8860     8861 1
    8837     3384     3385 1
    8838      230      231 1
    8839     6190     6191 1
    8840     7270     7271 1
    8841     2424     2415 1
    8842     1211     1208 1
    8843     8620     8621 1
    8844     7891     7892 1
    8845     7498     7499 1
    8846     9289     9290 1
    8847     2278     2279 1
    8848     8413     8416 1
    8849     1338     1339 1
    8850    10180    10181 1
    8851     9172     9173 1
    8852     2610     2611 1
    8853     8668     8669 1
    8854       12       10 1
    8855     3465     3466 1
    8856     7468     7471 1
    8857     4341     4343 1
    8858     2834     2836 1
    8859     4430     4433 1
    8860     4619     4622 1
    8861     4801     4804 1
    8862      474      477 1
    8863     6876     6879 1
    8864     8581     8578 1
    8865     7639     7641 1
    8866     1205     1207 1
    8867     6780     6781 1
    8868     6560     6561 1
    8869     8161     8163 1
    8870    10057    10058 1
    8871     8545     8546 1
    8872     1311     1312 1
    8873     9553     9554 1
    8874     8041     8042 1
    8875     8865     8868 1
    8876      755      757 1
    8877     9873     9876 1
    8878     3702     3703 1
    8879     3907     3906 1
    8880     8008     8010 1
    8881     4859     4853 1
    8882     4595     4597 1
    8883     2178     2180 1
    8884     4427     4429 1
    8885     1022     1023 1
    8886     5861     5863 1
    8887     5067     5069 1
    8888      162      164 1
    8889     4761     4763 1
    8890     3462     3463 1
    8891     9040     9041 1
    8892     9718     9721 1
    8893     8206     8209 1
    8894     9214     9217 1
    8895     9421     9423 1
    8896     7630     7632 1
    8897     8860     8802 1
    8898     7731     7734 1
    8899     6765     6768 1
    8900     8020     8017 1
    8901     6429     6431 1
    8902     6844     6846 1
    8903     7033     7035 1
    8904     6804     6807 1
    8905      933      935 1
    8906      109      112 1
    8907     3166     3168 1
    8908     2958     2961 1
    8909      859      858 1
    8910     4124     4127 1
    8911     5413     5418 1
    8912     4909     4910 1
    8913     1269     1270 1
    8914     6284     6285 1
    8915     2248     2249 1
    8916     5490     5491 1
    8917     2558     2559 1
    8918     7504     7505 1
    8919     3236     3237 1
    8920     7846     7847 1
    8921     5653     5654 1
    8922       63       64 1
    8923     2033     2034 1
    8924     4725     4726 1
    8925     7663     7664 1
    8926      843      844 1
    8927     6538     6541 1
    8928     6955     6958 1
    8929     5607     5608 1
    8930     3717     3718 1
    8931     2535     2538 1
    8932     8326     8329 1
    8933     8830     8833 1
    8934     7189     7191 1
    8935     6629     6631 1
    8936       54       57 1
    8937     4270     4261 1
    8938     6474     6477 1
    8939     3048     3050 1
    8940     9451     9453 1
    8941     9955     9957 1
    8942      451      452 1
    8943     3196     3199 1
    8944      502      501 1
    8945     7738     7740 1
    8946     3971     3970 1
    8947     3097     3098 1
    8948     8182     8183 1
    8949     7174     7175 1
    8950     3066     3067 1
    8951      338      339 1
    8952     3202     3204 1
    8953     6557     6558 1
    8954     1668     1669 1
    8955     5789     5790 1
    8956     5966     5967 1
    8957     7240     7241 1
    8958     4853     4854 1
    8959     2155     2157 1
    8960     1078     1081 1
    8961     2027     2030 1
    8962     9139     9142 1
    8963     1471     1474 1
    8964     5154     5157 1
    8965     8182     8185 1
    8966     6308     6311 1
    8967     7330     7333 1
    8968     6209     6212 1
    8969     5981     5982 1
    8970     7576     7573 1
    8971      451      457 1
    8972     1576     1579 1
    8973     2155     2161 1
    8974     1052     1051 1
    8975     4976     4977 1
    8976     4239     4240 1
    8977     7516     7513 1
    8978     1721     1726 1
    8979     9772     9773 1
    8980     8260     8261 1
    8981     8764     8765 1
    8982     4566     4561 1
    8983     7597     7598 1
    8984     5873     5874 1
    8985     6148     6149 1
    8986     9634     9637 1
    8987    10138    10141 1
    8988     3783     3785 1
    8989     4184     4185 1
    8990     8257     8254 1
    8991     6553     6557 1
    8992     8218     8219 1
    8993     6015     6016 1
    8994     5965     5970 1
    8995     5737     5739 1
    8996     8722     8723 1
    8997     4943     4945 1
    8998     9730     9731 1
    8999     1406     1405 1
    9000     7870     7872 1
    9001     1801     1803 1
    9002     6595     6597 1
    9003     8194     8196 1
    9004     9160     9161 1
    9005     3538     3541 1
    9006     1411     1412 1
    9007     3743     3740 1
    9008     3115     3118 1
    9009     9991     9994 1
    9010     4184     4187 1
    9011    10204    10207 1
    9012     9103     9105 1
    9013     1402     1405 1
    9014    10111    10113 1
    9015     7052     7054 1
    9016     3405     3408 1
    9017     2988     2991 1
    9018     7969     7972 1
    9019      538      539 1
    9020     5157     5158 1
    9021     7966     7967 1
    9022     5839     5840 1
    9023     8470     8471 1
    9024     1914     1912 1
    9025       16       14 1
    9026      659      660 1
    9027     5632     5635 1
    9028     6786     6789 1
    9029     6404     6391 1
    9030     6989     6983 1
    9031     1190     1193 1
    9032     4338     4341 1
    9033     6073     6076 1
    9034      779      780 1
    9035      711      720 1
    9036     1628     1631 1
    9037     2587     2581 1
    9038     5850     5857 1
    9039     2996     2983 1
    9040     3813     3815 1
    9041     3728     3731 1
    9042     8143     8146 1
    9043     2637     2639 1
    9044      402      404 1
    9045     5604     5606 1
    9046     1426     1428 1
    9047     3462     3464 1
    9048     2668     2670 1
    9049     6378     6381 1
    9050     8338     8339 1
    9051     8842     8843 1
    9052     6710     6711 1
    9053      854      856 1
    9054     1242     1244 1
    9055     4674     4677 1
    9056     3021     3023 1
    9057     8737     8680 1
    9058     8653     8656 1
    9059     8149     8152 1
    9060     4967     4970 1
    9061     7525     7526 1
    9062     4302     4303 1
    9063     8725     8726 1
    9064     2587     2588 1
    9065     9733     9734 1
    9066     3560     3561 1
    9067     7474     7475 1
    9068     5484     5485 1
    9069     8221     8222 1
    9070     4717     4718 1
    9071     6006     6007 1
    9072     1153     1155 1
    9073     9463     9465 1
    9074     3178     3181 1
    9075     7819     7822 1
    9076     7315     7318 1
    9077     2308     2305 1
    9078     8728     8729 1
    9079    10240    10241 1
    9080     3604     3605 1
    9081      269      270 1
    9082     1625     1626 1
    9083     6116     6117 1
    9084    10195    10198 1
    9085     5755     5758 1
    9086     8467     8470 1
    9087     9187     9190 1
    9088     5682     5685 1
    9089     4341     4344 1
    9090     2140     2143 1
    9091     1604     1606 1
    9092     6000     6002 1
    9093     9211     9213 1
    9094     7042     7039 1
    9095     7924     7926 1
    9096     9715     9717 1
    9097      248      250 1
    9098      230      232 1
    9099     8755     8756 1
    9100       78       75 1
    9101     7936     7939 1
    9102     7183     7186 1
    9103     3625     3628 1
    9104      384      387 1
    9105     3444     3447 1
    9106     4792     4795 1
    9107     6716     6713 1
    9108     9352     9349 1
    9109     2263     2260 1
    9110     4027     4029 1
    9111     9604     9606 1
    9112     9157     9158 1
    9113     6780     6782 1
    9114     6560     6562 1
    9115     2166     2167 1
    9116     4033     4034 1
    9117    10177    10178 1
    9118     7399     7401 1
    9119     9169     9170 1
    9120     6410     6414 1
    9121     8665     8666 1
    9122     3952     3953 1
    9123     4079     4081 1
    9124     6852     6854 1
    9125     4598     4600 1
    9126     3060     3062 1
    9127        2        4 1
    9128     1662     1664 1
    9129     3778     3776 1
    9130      752      749 1
    9131     3936     3934 1
    9132    10075    10076 1
    9133      341      342 1
    9134      955      956 1
    9135     6209     6210 1
    9136     2967     2968 1
    9137     6396     6397 1
    9138     7798     7799 1
    9139     7117     7118 1
    9140     5097     5099 1
    9141     3822     3819 1
    9142     5145     5146 1
    9143      329      331 1
    9144     7774     7775 1
    9145     8782     8783 1
    9146     3840     3842 1
    9147     1804     1805 1
    9148      332      333 1
    9149     5416     5417 1
    9150     4740     4741 1
    9151     3489     3490 1
    9152     4554     4556 1
    9153     1776     1779 1
    9154     2659     2662 1
    9155     1094     1096 1
    9156     6400     6391 1
    9157     9016     9019 1
    9158      909      912 1
    9159     2819     2821 1
    9160     5552     5554 1
    9161     7864     7866 1
    9162     1474     1475 1
    9163     3836     3837 1
    9164     5236     5239 1
    9165     6227     6229 1
    9166     3007     3009 1
    9167     7648     7650 1
    9168     7954     7957 1
    9169     7021     7023 1
    9170     4912     4915 1
    9171     1701     1704 1
    9172     3808     3807 1
    9173     1280     1283 1
    9174     1375     1377 1
    9175      982      983 1
    9176     5544     5545 1
    9177     1587     1588 1
    9178     5082     5083 1
    9179     4995     4996 1
    9180     4257     4258 1
    9181     5051     5052 1
    9182     8164     8166 1
    9183     2273     2274 1
    9184     7504     7506 1
    9185     6079     6080 1
    9186     7615     7616 1
    9187      671      672 1
    9188     1164     1167 1
    9189     2831     2834 1
    9190     5780     5782 1
    9191      517      514 1
    9192     7270     7272 1
    9193     6190     6192 1
    9194     6248     6245 1
    9195     4024     4027 1
    9196     3995     3993 1
    9197     6478     6479 1
    9198     6123     6124 1
    9199     3746     3748 1
    9200     5245     5246 1
    9201     6314     6315 1
    9202     4060     4061 1
    9203     4610     4611 1
    9204     3622     3623 1
    9205     5435     5436 1
    9206     6864     6865 1
    9207     1643     1644 1
    9208     3018     3019 1
    9209        6        8 1
    9210     5085     5087 1
    9211     9565     9568 1
    9212     7582     7584 1
    9213     7012     7014 1
    9214     1529     1532 1
    9215     3706     3709 1
    9216     1683     1680 1
    9217     5447     5449 1
    9218     1172     1174 1
    9219     4390     4391 1
    9220     9499     9502 1
    9221    10003    10006 1
    9222      298      299 1
    9223     3073     3074 1
    9224     9949     9950 1
    9225      601      604 1
    9226       25       26 1
    9227     8491     8494 1
    9228     2700     2703 1
    9229     3831     3834 1
    9230      520      522 1
    9231      489      491 1
    9232     3007     3013 1
    9233     9781     9782 1
    9234     5635     5636 1
    9235     8269     8270 1
    9236    10054    10056 1
    9237     1161     1162 1
    9238     8542     8544 1
    9239     4677     4680 1
    9240     1982     1983 1
    9241     9388     9390 1
    9242     7723     7720 1
    9243     5955     5958 1
    9244      595      593 1
    9245     6375     6377 1
    9246     3418     3420 1
    9247      917      915 1
    9248     6438     6441 1
    9249     8062     8065 1
    9250     9250     9252 1
    9251     8746     8748 1
    9252     6801     6802 1
    9253     9622     9621 1
    9254     7744     7745 1
    9255     2683     2685 1
    9256     3508     3510 1
    9257      341      344 1
    9258     3552     3554 1
    9259     9589     9591 1
    9260     9085     9087 1
    9261     8077     8079 1
    9262     1782     1784 1
    9263     6484     6486 1
    9264     3992     3990 1
    9265     5916     5919 1
    9266     9460     9462 1
    9267     1511     1513 1
    9268      838      837 1
    9269     5175     5178 1
    9270     6426     6428 1
    9271     7321     7323 1
    9272     3809     3807 1
    9273      730      734 1
    9274     1616     1619 1
    9275     8404     8406 1
    9276     9916     9918 1
    9277     7855     7798 1
    9278      619      622 1
    9279     4632     4633 1
    9280     9466     9467 1
    9281      378      379 1
    9282     2918     2920 1
    9283     3236     3238 1
    9284     7846     7848 1
    9285     5653     5655 1
    9286     8674     8617 1
    9287     9178     9121 1
    9288     6097     6098 1
    9289     9952     9953 1
    9290     8944     8945 1
    9291     9448     9449 1
    9292     5393     5394 1
    9293     6187     6188 1
    9294     7303     7304 1
    9295     9133     9136 1
    9296     7126     7127 1
    9297     8872     8873 1
    9298     6665     6666 1
    9299     9880     9881 1
    9300     6662     6664 1
    9301     4972     4971 1
    9302     1634     1635 1
    9303     8368     8369 1
    9304     2983     2992 1
    9305     3610     3612 1
    9306     3414     3417 1
    9307     2718     2721 1
    9308     1477     1478 1
    9309     3276     3277 1
    9310      958      959 1
    9311     7690     7691 1
    9312      353      350 1
    9313     4922     4923 1
    9314     7789     7790 1
    9315     2294     2289 1
    9316     1230     1231 1
    9317     1903     1904 1
    9318     6055     6056 1
    9319     2782     2783 1
    9320     9628     9629 1
    9321     7387     7388 1
    9322     1856     1859 1
    9323     8785     8788 1
    9324    10132    10133 1
    9325     6438     6440 1
    9326      103      105 1
    9327     9676     9677 1
    9328     4372     4374 1
    9329     3024     3026 1
    9330     9127     9130 1
    9331     7930     7927 1
    9332     6810     6807 1
    9333     2175     2178 1
    9334     5511     5514 1
    9335     3891     3892 1
    9336      278      281 1
    9337      405      407 1
    9338     6157     6159 1
    9339     3375     3376 1
    9340     1671     1672 1
    9341     6348     6349 1
    9342     2465     2466 1
    9343     9772     9774 1
    9344     4088     4089 1
    9345     6952     6953 1
    9346     1468     1470 1
    9347     3422     3423 1
    9348     1732     1733 1
    9349     8260     8262 1
    9350     7939     7942 1
    9351    10234    10237 1
    9352     5221     5224 1
    9353     5314     5316 1
    9354     4687     4700 1
    9355     6120     6121 1
    9356     5705     5711 1
    9357     6598     6599 1
    9358     4586     4589 1
    9359     1852     1847 1
    9360     7693     7694 1
    9361     5523     5526 1
    9362     7405     7406 1
    9363      329      332 1
    9364     2227     2224 1
    9365     5296     5298 1
    9366     5559     5563 1
    9367     4746     4748 1
    9368     8857     8859 1
    9369     5381     5383 1
    9370     8578     8580 1
    9371     9361     9363 1
    9372     4928     4929 1
    9373     4897     4898 1
    9374     2733     2726 1
    9375     4433     4434 1
    9376     5836     5838 1
    9377     6949     6951 1
    9378     5160     5162 1
    9379      233      235 1
    9380     9682     9625 1
    9381     2338     2341 1
    9382     9316     9319 1
    9383     4786     4789 1
    9384     5070     5073 1
    9385     1027     1030 1
    9386     3806     3804 1
    9387      199      202 1
    9388      782      785 1
    9389     8053     8050 1
    9390       94       91 1
    9391     2861     2865 1
    9392     8137     8139 1
    9393     5622     5623 1
    9394     8029     8030 1
    9395     3205     3206 1
    9396     2842     2843 1
    9397     9454     9455 1
    9398     2764     2765 1
    9399     9958     9959 1
    9400      286      288 1
    9401     6088     6090 1
    9402     5548     5550 1
    9403     5287     5290 1
    9404     6885     6886 1
    9405     3112     3114 1
    9406     5626     5628 1
    9407      173      170 1
    9408     9088     9090 1
    9409     2366     2368 1
    9410     8623     8626 1
    9411     4281     4285 1
    9412     6841     6847 1
    9413     7459     7462 1
    9414     6764     6705 1
    9415     7076     7077 1
    9416      414      415 1
    9417     5589     5590 1
    9418     6468     6469 1
    9419      133      134 1
    9420     1637     1640 1
    9421     5580     5582 1
    9422     1279     1292 1
    9423     2434     2438 1
    9424     1607     1604 1
    9425     9616     9618 1
    9426     8104     8106 1
    9427     7681     7684 1
    9428     4048     4051 1
    9429     4274     4261 1
    9430     1350     1347 1
    9431     5861     5864 1
    9432     5067     5070 1
    9433     3687     3686 1
    9434     4761     4764 1
    9435     4731     4733 1
    9436     3647     3650 1
    9437     7525     7527 1
    9438     5952     5953 1
    9439     2106     2107 1
    9440     1474     1476 1
    9441     3798     3795 1
    9442     9541     9544 1
    9443     9268     9269 1
    9444      159      161 1
    9445      275      272 1
    9446     2356     2357 1
    9447      894      895 1
    9448     5079     5080 1
    9449     5048     5049 1
    9450     4859     4860 1
    9451     4780     4781 1
    9452     4749     4750 1
    9453     7978     7920 1
    9454     6262     6263 1
    9455     8113     8116 1
    9456     6552     6556 1
    9457    10018    10021 1
    9458       78       79 1
    9459     9220     9223 1
    9460     7933     7936 1
    9461     8212     8215 1
    9462     4580     4583 1
    9463     9724     9727 1
    9464     9313     9314 1
    9465     2885     2886 1
    9466     5058     5060 1
    9467     5143     5144 1
    9468     7264     7266 1
    9469      365      362 1
    9470     6629     6632 1
    9471     7189     7192 1
    9472     9706     9708 1
    9473     8698     8700 1
    9474     5320     5323 1
    9475     8602     8605 1
    9476     9623     9621 1
    9477     1713     1710 1
    9478     9151     9153 1
    9479     3178     3179 1
    9480     7819     7820 1
    9481     5955     5956 1
    9482     7138     7139 1
    9483     1595     1596 1
    9484     8647     8649 1
    9485     4601     4603 1
    9486     9385     9387 1
    9487     8881     8883 1
    9488     4146     4149 1
    9489     5632     5633 1
    9490     2900     2903 1
    9491     2931     2934 1
    9492     5601     5602 1
    9493     6755     6758 1
    9494     4680     4682 1
    9495     2882     2885 1
    9496     7294     7297 1
    9497     4369     4372 1
    9498     5934     5937 1
    9499     7774     7776 1
    9500     8782     8784 1
    9501     3350     3347 1
    9502     7582     7585 1
    9503     3792     3795 1
    9504     1390     1391 1
    9505     5106     5109 1
    9506     8671     8673 1
    9507     9679     9681 1
    9508     9121     9123 1
    9509     7103     7101 1
    9510    10183    10185 1
    9511     8887     8889 1
    9512     9391     9393 1
    9513      749      751 1
    9514      144      146 1
    9515     1918     1919 1
    9516     2224     2225 1
    9517      761      758 1
    9518     3722     3720 1
    9519      462      463 1
    9520     8923     8865 1
    9521     5015     5018 1
    9522     5619     5622 1
    9523     3251     3253 1
    9524     3963     3961 1
    9525     5224     5227 1
    9526     3601     3604 1
    9527     5184     5185 1
    9528     5855     5856 1
    9529     2798     2799 1
    9530     5215     5216 1
    9531      529      526 1
    9532     6849     6852 1
    9533     3900     3903 1
    9534     7609     7610 1
    9535     2121     2122 1
    9536     4178     4179 1
    9537     4169     4172 1
    9538     1378     1380 1
    9539      849      851 1
    9540     2082     2085 1
    9541     7894     7896 1
    9542     7642     7645 1
    9543     2644     2645 1
    9544     5843     5847 1
    9545     6894     6896 1
    9546     2773     2775 1
    9547     6290     6292 1
    9548     5985     5989 1
    9549     1387     1388 1
    9550     3791     3789 1
    9551     8458     8461 1
    9552      106      107 1
    9553     5910     5911 1
    9554     2822     2823 1
    9555      432      433 1
    9556     4592     4594 1
    9557     4372     4375 1
    9558     1359     1362 1
    9559     2332     2334 1
    9560     7843     7840 1
    9561     1782     1785 1
    9562     3233     3230 1
    9563     1874     1875 1
    9564     5372     5375 1
    9565     2369     2370 1
    9566     3578     3579 1
    9567     3767     3764 1
    9568     3063     3065 1
    9569     6505     6506 1
    9570     1710     1705 1
    9571     1884     1882 1
    9572     3920     3918 1
    9573     9673     9674 1
    9574     4758     4759 1
    9575     5984     5985 1
    9576     1426     1429 1
    9577     9931     9873 1
    9578     1317     1318 1
    9579     2541     2543 1
    9580     1233     1230 1
    9581     3698     3693 1
    9582     7108     7109 1
    9583     2350     2353 1
    9584     3807     3810 1
    9585     2230     2231 1
    9586     5716     5717 1
    9587     6801     6803 1
    9588     3851     3852 1
    9589     5644     5645 1
    9590     2592     2593 1
    9591      692      693 1
    9592     1979     1980 1
    9593     6960     6961 1
    9594     8956     8957 1
    9595     8046     8047 1
    9596     4870     4871 1
    9597     1659     1660 1
    9598     4486     4489 1
    9599     4184     4186 1
    9600     6447     6450 1
    9601      411      408 1
    9602     1275     1278 1
    9603     2505     2507 1
    9604     3109     3111 1
    9605     9985     9987 1
    9606     8977     8979 1
    9607     2353     2356 1
    9608     2109     2112 1
    9609     1027     1029 1
    9610     9463     9466 1
    9611     9712     9715 1
    9612     8479     8482 1
    9613     8983     8986 1
    9614     7528     7531 1
    9615      724      727 1
    9616     1563     1572 1
    9617     7036     7039 1
    9618     8620     8623 1
    9619     7891     7894 1
    9620     6108     6109 1
    9621     5432     5433 1
    9622     5558     5559 1
    9623     1792     1793 1
    9624     6224     6226 1
    9625     8317     8319 1
    9626     8821     8823 1
    9627     7555     7558 1
    9628     8743     8746 1
    9629     9247     9250 1
    9630     5190     5193 1
    9631     7435     7438 1
    9632     9325     9327 1
    9633     4332     4333 1
    9634     9406     9407 1
    9635      764      765 1
    9636    10231    10234 1
    9637     8080     8077 1
    9638     7085     7087 1
    9639     7164     7166 1
    9640     6810     6812 1
    9641     2329     2331 1
    9642     7668     7670 1
    9643     9412     9409 1
    9644     9810     9811 1
    9645     2016     2017 1
    9646     6907     6908 1
    9647     8298     8299 1
    9648     4688     4689 1
    9649     4280     4283 1
    9650      290      285 1
    9651     5569     5563 1
    9652     6817     6818 1
    9653      985      987 1
    9654     9604     9607 1
    9655     1022     1025 1
    9656     5366     5367 1
    9657     3756     3755 1
    9658     7987     7990 1
    9659     9424     9426 1
    9660     7633     7635 1
    9661     3465     3462 1
    9662     3792     3793 1
    9663    10045    10046 1
    9664      949      950 1
    9665     9541     9542 1
    9666     8533     8534 1
    9667     2082     2083 1
    9668     6239     6240 1
    9669     2286     2287 1
    9670     6378     6379 1
    9671     8938     8939 1
    9672     8434     8435 1
    9673     3314     3315 1
    9674     4662     4663 1
    9675     5686     5687 1
    9676     2214     2215 1
    9677     4027     4028 1
    9678     7597     7600 1
    9679     5873     5876 1
    9680     6148     6151 1
    9681     8248     8249 1
    9682     7570     7571 1
    9683      507      509 1
    9684     1121     1123 1
    9685     8002     8004 1
    9686     5978     5980 1
    9687     4752     4754 1
    9688     1582     1584 1
    9689     7055     7058 1
    9690     4842     4845 1
    9691     3152     3159 1
    9692     6931     6932 1
    9693     6033     6034 1
    9694     4206     4207 1
    9695     6308     6309 1
    9696     6064     6065 1
    9697     3138     3139 1
    9698     3320     3317 1
    9699     7309     7310 1
    9700    10108    10109 1
    9701     2378     2379 1
    9702      970      971 1
    9703     5421     5422 1
    9704     2897     2898 1
    9705    10219    10221 1
    9706     5810     5812 1
    9707     5952     5955 1
    9708     3866     3865 1
    9709     1459     1461 1
    9710     6841     6843 1
    9711     4786     4788 1
    9712     6795     6798 1
    9713     8050     8052 1
    9714     8833     8835 1
    9715     8329     8331 1
    9716     8707     8710 1
    9717     6236     6238 1
    9718     6511     6513 1
    9719     3291     3293 1
    9720       60       62 1
    9721     8203     8206 1
    9722      510      513 1
    9723       56       54 1
    9724     2181     2184 1
    9725     6058     6061 1
    9726     4003     4001 1
    9727      943      945 1
    9728     5573     5566 1
    9729     2718     2722 1
    9730     1030     1031 1
    9731     4093     4091 1
    9732     5622     5624 1
    9733     8029     8031 1
    9734     3205     3207 1
    9735     4153     4146 1
    9736     2828     2830 1
    9737     5690     5692 1
    9738     5955     5957 1
    9739     7138     7140 1
    9740     4984     4985 1
    9741     6505     6507 1
    9742     3178     3180 1
    9743     7819     7821 1
    9744     4511     4514 1
    9745        6        9 1
    9746     5129     5134 1
    9747     6734     6737 1
    9748    10099    10102 1
    9749     3163     3166 1
    9750     4990     4992 1
    9751     4070     4072 1
    9752     8869     8871 1
    9753     9652     9654 1
    9754     9877     9879 1
    9755     7411     7413 1
    9756    10246    10248 1
    9757     7726     7728 1
    9758     1906     1908 1
    9759     5260     5263 1
    9760     9742     9744 1
    9761     4354     4356 1
    9762     2758     2761 1
    9763     8887     8890 1
    9764      414      416 1
    9765     7076     7078 1
    9766     2341     2343 1
    9767     2402     2403 1
    9768      712      715 1
    9769     4774     4776 1
    9770     3286     3287 1
    9771     9592     9593 1
    9772     8080     8081 1
    9773     7516     7518 1
    9774     8584     8585 1
    9775     5992     5993 1
    9776     5577     5578 1
    9777     7342     7345 1
    9778     1303     1305 1
    9779     8497     8499 1
    9780      423      420 1
    9781     2734     2736 1
    9782     4051     4053 1
    9783     2384     2385 1
    9784     4251     4252 1
    9785     2734     2737 1
    9786     4441     4442 1
    9787     5952     5954 1
    9788     2106     2108 1
    9789     3263     3264 1
    9790      588      589 1
    9791     8671     8613 1
    9792    10183    10125 1
    9793     1332     1333 1
    9794     2297     2298 1
    9795      294      295 1
    9796     8968     8969 1
    9797     9268     9270 1
    9798     6073     6074 1
    9799     4135     4136 1
    9800     6317     6318 1
    9801     3100     3101 1
    9802     9634     9635 1
    9803     1381     1382 1
    9804    10138    10139 1
    9805     1208     1205 1
    9806     3713     3712 1
    9807      767      768 1
    9808     8404     8405 1
    9809     4416     4417 1
    9810     5804     5805 1
    9811     9709     9710 1
    9812     9916     9917 1
    9813     9205     9206 1
    9814     7207     7210 1
    9815     3898     3897 1
    9816     3985     3982 1
    9817     8920     8921 1
    9818     6262     6264 1
    9819     3964     3966 1
    9820     2314     2316 1
    9821     5722     5723 1
    9822     8452     8455 1
    9823     9964     9967 1
    9824     3356     3297 1
    9825     2868     2871 1
    9826     2031     2030 1
    9827     3088     3091 1
    9828      446      448 1
    9829     5245     5247 1
    9830     3713     3717 1
    9831      861      858 1
    9832     3758     3755 1
    9833     2576     2580 1
    9834     2912     2914 1
    9835     1940     1943 1
    9836     1097     1100 1
    9837     5523     5524 1
    9838     8626     8629 1
    9839     9369     9372 1
    9840     8383     8386 1
    9841       10        1 1
    9842     2321     2320 1
    9843     5992     5999 1
    9844     6919     6920 1
    9845     4706     4707 1
    9846     9799     9800 1
    9847      601      603 1
    9848     9031     9033 1
    9849     9535     9537 1
    9850    10039    10041 1
    9851      526      527 1
    9852     4291     4292 1
    9853      510      511 1
    9854     9873     9875 1
    9855     8865     8867 1
    9856     3070     3073 1
    9857     1653     1654 1
    9858      443      445 1
    9859     5256     5258 1
    9860     1445     1447 1
    9861      257      259 1
    9862     7429     7431 1
    9863     5795     5798 1
    9864     9196     9199 1
    9865     8017     8019 1
    9866     7849     7850 1
    9867     2879     2880 1
    9868     3208     3209 1
    9869     9760     9761 1
    9870     5656     5657 1
    9871     3294     3295 1
    9872     5021     5022 1
    9873     8449     8451 1
    9874     1900     1902 1
    9875     9457     9458 1
    9876     8953     8955 1
    9877     4677     4679 1
    9878    10111    10114 1
    9879     5357     5360 1
    9880     1582     1585 1
    9881     5326     5328 1
    9882     8608     8610 1
    9883     4900     4903 1
    9884     7600     7602 1
    9885     6151     6153 1
    9886     5357     5359 1
    9887     7636     7637 1
    9888     1202     1205 1
    9889     5508     5511 1
    9890      785      788 1
    9891     5477     5480 1
    9892     8605     8607 1
    9893     5958     5960 1
    9894     5323     5325 1
    9895      208      210 1
    9896     5354     5356 1
    9897     6737     6740 1
    9898     1045     1048 1
    9899     4124     4126 1
    9900     1810     1813 1
    9901     2656     2657 1
    9902     2625     2626 1
    9903       51       52 1
    9904     3641     3638 1
    9905     1027     1028 1
    9906     2973     2976 1
    9907     8872     8875 1
    9908     4876     4877 1
    9909     3425     3430 1
    9910     7675     7676 1
    9911     6387     6389 1
    9912     8680     8682 1
    9913     9880     9883 1
    9914     3660     3659 1
    9915     5970     5972 1
    9916      278      279 1
    9917     5274     5277 1
    9918     1572     1573 1
    9919     7249     7251 1
    9920     9028     9031 1
    9921     9532     9535 1
    9922     5716     5713 1
    9923    10036    10039 1
    9924     6691     6696 1
    9925     7942     7945 1
    9926       69       70 1
    9927     2100     2097 1
    9928      106      108 1
    9929     3680     3681 1
    9930     1504     1507 1
    9931       84       87 1
    9932     9180     9183 1
    9933     5007     5006 1
    9934     9121     9124 1
    9935      909      910 1
    9936      607      608 1
    9937     4311     4312 1
    9938     3332     3333 1
    9939     9403     9404 1
    9940      761      762 1
    9941     7741     7743 1
    9942     3112     3115 1
    9943     8656     8657 1
    9944     8152     8153 1
    9945     9088     9091 1
    9946     2366     2369 1
    9947     3952     3955 1
    9948     3060     3063 1
    9949     7765     7767 1
    9950     6052     6054 1
    9951     7327     7329 1
    9952       66       68 1
    9953     1480     1481 1
    9954      359      362 1
    9955     2115     2116 1
    9956     9112     9113 1
    9957     2450     2447 1
    9958     2144     2146 1
    9959     4561     4563 1
    9960     6743     6745 1
    9961     2004     2002 1
    9962     3344     3345 1
    9963     3996     3997 1
    9964     2199     2196 1
    9965     3993     3990 1
    9966      933      936 1
    9967     7345     7347 1
    9968     3239     3241 1
    9969     8353     8355 1
    9970     6725     6727 1
    9971     9865     9867 1
    9972     1142     1145 1
    9973     2236     2233 1
    9974     1692     1693 1
    9975     9757     9758 1
    9976     8245     8246 1
    9977     1060     1061 1
    9978     5885     5886 1
    9979     3894     3891 1
    9980     9808     9751 1
    9981     8296     8239 1
    9982     2983     2988 1
    9983     4293     4296 1
    9984     3979     3978 1
    9985     7249     7246 1
    9986     7261     7262 1
    9987     2489     2490 1
    9988     1970     1971 1
    9989     2257     2258 1
    9990     4109     4111 1
    9991      640      637 1
    9992     9217     9218 1
    9993     6629     6626 1
    9994     4314     4315 1
    9995     2792     2794 1
    9996     1477     1480 1
    9997     3396     3398 1
    9998     2008     2010 1
    9999     8659     8661 1
   10000     5018     5021 1
   10001     5122     5124 1
   10002     4526     4529 1
   10003     8827     8830 1
   10004    10114    10117 1
   10005     2360     2362 1
   10006     7264     7267 1
   10007     4103     4106 1
   10008     4317     4318 1
   10009     5807     5810 1
   10010     2810     2811 1
   10011     7870     7867 1
   10012     4737     4738 1
   10013     1514     1517 1
   10014      263      264 1
   10015     3993     3998 1
   10016     4830     4831 1
   10017     7049     7050 1
   10018     6045     6048 1
   10019     3072     3013 1
   10020     5725     5727 1
   10021     7699     7701 1
   10022     6635     6637 1
   10023     4422     4424 1
   10024     8812     8814 1
   10025     7094     7096 1
   10026     9820     9822 1
   10027     3564     3566 1
   10028     3697     3694 1
   10029     8308     8310 1
   10030     3544     3546 1
   10031     3694     3695 1
   10032     6755     6757 1
   10033       14       17 1
   10034     1242     1245 1
   10035     3202     3199 1
   10036     5163     5166 1
   10037     3541     3543 1
   10038     3268     3271 1
   10039      532      535 1
   10040     3734     3736 1
   10041      949      951 1
   10042     8533     8535 1
   10043     9145     9142 1
   10044     9541     9543 1
   10045     2082     2084 1
   10046    10045    10047 1
   10047     7366     7367 1
   10048     8230     8231 1
   10049     9238     9239 1
   10050     8734     8735 1
   10051     4323     4324 1
   10052     2816     2817 1
   10053      588      590 1
   10054     2384     2386 1
   10055     3263     3265 1
   10056     4251     4253 1
   10057     4441     4443 1
   10058     3925     3927 1
   10059     8725     8727 1
   10060     9733     9735 1
   10061     4302     4304 1
   10062     8221     8223 1
   10063     6006     6008 1
   10064     1130     1132 1
   10065     3181     3182 1
   10066     7822     7823 1
   10067     2662     2663 1
   10068     9298     9299 1
   10069     3828     3831 1
   10070     3628     3629 1
   10071     5903     5904 1
   10072     3283     3284 1
   10073     5299     5300 1
   10074      550      551 1
   10075     8818     8819 1
   10076     2344     2345 1
   10077     6249     6258 1
   10078     8314     8315 1
   10079     3254     3255 1
   10080     9322     9323 1
   10081     3570     3571 1
   10082     6126     6130 1
   10083      387      390 1
   10084     7843     7846 1
   10085     9901     9904 1
   10086     4972     4975 1
   10087     2640     2643 1
   10088       36       37 1
   10089     6108     6111 1
   10090     9901     9902 1
   10091     8893     8894 1
   10092      112      115 1
   10093     8272     8274 1
   10094     8473     8475 1
   10095    10243    10240 1
   10096      752      755 1
   10097     2474     2476 1
   10098     7186     7188 1
   10099     3880     3879 1
   10100     1909     1911 1
   10101     5236     5238 1
   10102     6030     6032 1
   10103     9376     9378 1
   10104     1749     1750 1
   10105     2317     2320 1
   10106     8335     8337 1
   10107      988      990 1
   10108     9847     9849 1
   10109     1445     1451 1
   10110     7759     7762 1
   10111     4285     4287 1
   10112     9628     9631 1
   10113    10177    10179 1
   10114     8665     8667 1
   10115    10132    10135 1
   10116     7387     7390 1
   10117     9169     9171 1
   10118     6407     6408 1
   10119     7353     7356 1
   10120     7660     7662 1
   10121     1063     1066 1
   10122     7030     7033 1
   10123      207      205 1
   10124     5082     5085 1
   10125     9799     9801 1
   10126     9460     9463 1
   10127     6012     6015 1
   10128     6565     6568 1
   10129     6574     6576 1
   10130     6024     6026 1
   10131     7219     7221 1
   10132     4076     4078 1
   10133     1112     1113 1
   10134     8635     8636 1
   10135     8131     8132 1
   10136     3816     3813 1
   10137    10150    10152 1
   10138     8638     8640 1
   10139     9400     9402 1
   10140     8896     8898 1
   10141     1417     1419 1
   10142     7963     7964 1
   10143     4641     4642 1
   10144     2553     2554 1
   10145     3002     3006 1
   10146     6758     6760 1
   10147     6768     6770 1
   10148     6737     6739 1
   10149     2066     2068 1
   10150    10108    10111 1
@<TRIPOS>SUBSTRUCTURE
       1 RES             1 RESIDUE    0 **** ROOT      0
