@<TRIPOS>MOLECULE
RES
3 2 1 0 1
SMALL
NO_CHARGES
@<TRIPOS>CRYSIN
    6.2362     7.0796     5.0000    90.0000    90.0000    90.0000  1  1
@<TRIPOS>ATOM
       1 OE           1.2362    -0.8496     0.0000 OE            1 RES     
       2 C            0.0000     0.0000     0.0000 C             1 RES     
       3 O            0.0000     1.2300     0.0000 O             1 RES     
@<TRIPOS>BOND
       1        3        2 1
       2        1        2 1
@<TRIPOS>SUBSTRUCTURE
       1 RES             1 RESIDUE    0 **** ROOT      0
