@<TRIPOS>MOLECULE
RES
50 49 1 0 1
SMALL
NO_CHARGES
@<TRIPOS>CRYSIN
    8.0348    25.1454     8.3123    90.0000    90.0000    90.0000  1  1
@<TRIPOS>ATOM
       1 C           -0.0036   -17.6814    -0.0180 C             1 RES     
       2 H            0.8523   -17.6877     0.6903 H             1 RES     
       3 H            0.0654   -18.5802    -0.6663 H             1 RES     
       4 H           -0.9531   -17.7288     0.5566 H             1 RES     
       5 C            0.3788    -0.0222     0.2292 C             1 RES     
       6 H           -0.6196     0.0557     0.7115 H             1 RES     
       7 H            1.1431    -0.1264     1.0296 H             1 RES     
       8 C            0.4186    -1.2630    -0.6757 C             1 RES     
       9 H            1.4151    -1.3297    -1.1650 H             1 RES     
      10 H           -0.3634    -1.1802    -1.4610 H             1 RES     
      11 C            0.1758    -2.5399     0.1379 C             1 RES     
      12 H           -0.8184    -2.4803     0.6337 H             1 RES     
      13 H            0.9614    -2.6252     0.9210 H             1 RES     
      14 C            0.2208    -3.7834    -0.7585 C             1 RES     
      15 H            1.2107    -3.8335    -1.2638 H             1 RES     
      16 H           -0.5735    -3.7093    -1.5338 H             1 RES     
      17 C            0.0154    -5.0600     0.0654 C             1 RES     
      18 H           -0.9717    -5.0178     0.5769 H             1 RES     
      19 H            0.8152    -5.1240     0.8362 H             1 RES     
      20 C            0.0738    -6.3080    -0.8236 C             1 RES     
      21 H            1.0556    -6.3383    -1.3460 H             1 RES     
      22 H           -0.7356    -6.2583    -1.5850 H             1 RES     
      23 C           -0.0847    -7.5829     0.0135 C             1 RES     
      24 H           -1.0629    -7.5612     0.5427 H             1 RES     
      25 H            0.7303    -7.6207     0.7700 H             1 RES     
      26 C           -0.0104    -8.8366    -0.8661 C             1 RES     
      27 H            0.9620    -8.8470    -1.4064 H             1 RES     
      28 H           -0.8346    -8.8136    -1.6129 H             1 RES     
      29 C           -0.1218   -10.1076    -0.0155 C             1 RES     
      30 H           -1.0904   -10.1043     0.5315 H             1 RES     
      31 H            0.7076   -10.1199     0.7260 H             1 RES     
      32 C           -0.0347   -11.3666    -0.8861 C             1 RES     
      33 H            0.9285   -11.3613    -1.4428 H             1 RES     
      34 H           -0.8716   -11.3665    -1.6189 H             1 RES     
      35 C           -0.1075   -12.6331    -0.0246 C             1 RES     
      36 H           -1.0671   -12.6427     0.5381 H             1 RES     
      37 H            0.7338   -12.6259     0.7034 H             1 RES     
      38 C           -0.0140   -13.8961    -0.8886 C             1 RES     
      39 H            0.9416   -13.8814    -1.4581 H             1 RES     
      40 H           -0.8605   -13.9110    -1.6102 H             1 RES     
      41 C           -0.0618   -15.1591    -0.0203 C             1 RES     
      42 H           -1.0146   -15.1759     0.5537 H             1 RES     
      43 H            0.7880   -15.1411     0.6977 H             1 RES     
      44 C            0.0325   -16.4236    -0.8815 C             1 RES     
      45 H            0.9828   -16.4133    -1.4587 H             1 RES     
      46 H           -0.8189   -16.4532    -1.5960 H             1 RES     
      47 C            0.6619     1.2827    -0.5251 C             1 RES     
      48 O            1.9444     1.2909    -1.0845 O             1 RES     
      49 O           -0.3119     1.5652    -1.4953 O             1 RES     
      50 H           -0.1198     0.9931    -2.2827 H             1 RES     
@<TRIPOS>BOND
       1        5       47 1
       2       36       35 1
       3       15       14 1
       4        3        1 1
       5       12       11 1
       6       16       14 1
       7       37       35 1
       8       41       38 1
       9       43       41 1
      10       20       17 1
      11       10        8 1
      12       22       20 1
      13       34       32 1
      14       44       41 1
      15       17       14 1
      16       18       17 1
      17       44       45 1
      18       33       32 1
      19       26       29 1
      20       42       41 1
      21       26       23 1
      22       30       29 1
      23       14       11 1
      24        6        5 1
      25        1        2 1
      26       32       29 1
      27       44       46 1
      28       24       23 1
      29        8        5 1
      30        9        8 1
      31       35       32 1
      32       21       20 1
      33        7        5 1
      34       27       26 1
      35       28       26 1
      36       38       35 1
      37       13       11 1
      38       49       50 1
      39       19       17 1
      40       48       47 1
      41       39       38 1
      42       11        8 1
      43       49       47 1
      44        4        1 1
      45       31       29 1
      46       25       23 1
      47       23       20 1
      48       40       38 1
      49       44        1 1
@<TRIPOS>SUBSTRUCTURE
       1 RES             1 RESIDUE    0 **** ROOT      0
