@<TRIPOS>MOLECULE
RES
73 72 1 0 1
SMALL
NO_CHARGES
@<TRIPOS>CRYSIN
    7.3269     7.9014    35.3293    90.0000    90.0000    90.0000  1  1
@<TRIPOS>ATOM
       1 OE          12.1949     0.7626    15.1227 OE            1 RES     
       2 C           13.1260     1.0149    13.9740 C             1 RES     
       3 O           13.1113     2.0264    13.2744 O             1 RES     
       4 C           13.4518     0.0000    13.4089 C             1 RES     
       5 H           12.5617    -0.6291    13.4089 H             1 RES     
       6 H           14.3419    -0.6291    13.4089 H             1 RES     
       7 C           13.4518     0.8888    12.1512 C             1 RES     
       8 H           14.3419     1.5179    12.1512 H             1 RES     
       9 H           12.5617     1.5179    12.1512 H             1 RES     
      10 C           13.4518     0.0000    10.8936 C             1 RES     
      11 H           12.5617    -0.6291    10.8936 H             1 RES     
      12 H           14.3419    -0.6291    10.8936 H             1 RES     
      13 C           13.4518     0.8888     9.6360 C             1 RES     
      14 H           14.3419     1.5179     9.6360 H             1 RES     
      15 H           12.5617     1.5179     9.6360 H             1 RES     
      16 C           13.4518     0.0000     8.3783 C             1 RES     
      17 H           12.5617    -0.6291     8.3783 H             1 RES     
      18 H           14.3419    -0.6291     8.3783 H             1 RES     
      19 C           13.4518     0.8888     7.1207 C             1 RES     
      20 H           14.3419     1.5179     7.1207 H             1 RES     
      21 H           12.5617     1.5179     7.1207 H             1 RES     
      22 C           13.4518     0.0000     5.8631 C             1 RES     
      23 H           12.5617    -0.6291     5.8631 H             1 RES     
      24 H           14.3419    -0.6291     5.8631 H             1 RES     
      25 C           13.4518     0.8888     4.6055 C             1 RES     
      26 H           14.3419     1.5179     4.6055 H             1 RES     
      27 H           12.5617     1.5179     4.6055 H             1 RES     
      28 C           13.4518     0.0000     3.3478 C             1 RES     
      29 H           12.5617    -0.6291     3.3478 H             1 RES     
      30 H           14.3419    -0.6291     3.3478 H             1 RES     
      31 C           13.4518     0.8888     2.0902 C             1 RES     
      32 H           14.3419     1.5179     2.0902 H             1 RES     
      33 H           12.5617     1.5179     2.0902 H             1 RES     
      34 C           13.4518     0.0000     0.8326 C             1 RES     
      35 H           12.5617    -0.6291     0.8326 H             1 RES     
      36 H           14.3419    -0.6291     0.8326 H             1 RES     
      37 C           13.4518     0.8888    -0.4250 C             1 RES     
      38 H           14.3419     1.5179    -0.4250 H             1 RES     
      39 H           12.5617     1.5179    -0.4250 H             1 RES     
      40 C           13.4518    -0.0000    -1.6827 C             1 RES     
      41 H           12.5617    -0.6291    -1.6827 H             1 RES     
      42 H           14.3419    -0.6291    -1.6827 H             1 RES     
      43 C           13.4518     0.8888    -2.9403 C             1 RES     
      44 H           14.3419     1.5179    -2.9403 H             1 RES     
      45 H           12.5617     1.5179    -2.9403 H             1 RES     
      46 C           13.4518    -0.0000    -4.1979 C             1 RES     
      47 H           12.5617    -0.6291    -4.1979 H             1 RES     
      48 H           14.3419    -0.6291    -4.1979 H             1 RES     
      49 C           13.4518     0.8888    -5.4556 C             1 RES     
      50 H           14.3419     1.5179    -5.4556 H             1 RES     
      51 H           12.5617     1.5179    -5.4556 H             1 RES     
      52 C           13.4518    -0.0000    -6.7132 C             1 RES     
      53 H           12.5617    -0.6291    -6.7132 H             1 RES     
      54 H           14.3419    -0.6291    -6.7132 H             1 RES     
      55 C           13.4518     0.8888    -7.9708 C             1 RES     
      56 H           14.3419     1.5179    -7.9708 H             1 RES     
      57 H           12.5617     1.5179    -7.9708 H             1 RES     
      58 C           13.4518    -0.0000    -9.2284 C             1 RES     
      59 H           12.5617    -0.6291    -9.2284 H             1 RES     
      60 H           14.3419    -0.6291    -9.2284 H             1 RES     
      61 C           13.4518     0.8888   -10.4861 C             1 RES     
      62 H           14.3419     1.5179   -10.4861 H             1 RES     
      63 H           12.5617     1.5179   -10.4861 H             1 RES     
      64 C           13.4518    -0.0000   -11.7437 C             1 RES     
      65 H           12.5617    -0.6291   -11.7437 H             1 RES     
      66 H           14.3419    -0.6291   -11.7437 H             1 RES     
      67 C           13.4518     0.8888   -13.0013 C             1 RES     
      68 H           14.3419     1.5179   -13.0013 H             1 RES     
      69 H           12.5617     1.5179   -13.0013 H             1 RES     
      70 C           13.4518     0.0404   -14.2018 C             1 RES     
      71 H           14.5218     0.0404   -14.2018 H             1 RES     
      72 H           13.0948     0.1298   -15.2067 H             1 RES     
      73 H           13.0948    -0.8750   -13.7765 H             1 RES     
@<TRIPOS>BOND
       1        2        3 1
       2       40       42 1
       3        4        5 1
       4       37       40 1
       5       64       65 1
       6       10       13 1
       7       10       11 1
       8       19       21 1
       9        7        9 1
      10       58       61 1
      11       67       68 1
      12        7        8 1
      13       16       18 1
      14       52       53 1
      15        4        6 1
      16       28       29 1
      17       22       19 1
      18       34       37 1
      19       61       63 1
      20       13       14 1
      21        1        2 1
      22       64       66 1
      23       31       34 1
      24        7       10 1
      25       34       35 1
      26       70       67 1
      27       31       33 1
      28       43       45 1
      29       61       62 1
      30       73       70 1
      31        4        2 1
      32       43       44 1
      33       52       54 1
      34       64       67 1
      35        7        4 1
      36       55       58 1
      37       28       31 1
      38       19       20 1
      39       22       25 1
      40       25       26 1
      41       37       38 1
      42       43       46 1
      43       22       24 1
      44       55       56 1
      45       40       43 1
      46       16       17 1
      47       52       49 1
      48       13       15 1
      49       46       48 1
      50       13       16 1
      51       58       59 1
      52       55       57 1
      53       10       12 1
      54       67       69 1
      55       31       32 1
      56       34       36 1
      57       49       50 1
      58       46       49 1
      59       61       64 1
      60       16       19 1
      61       28       30 1
      62       40       41 1
      63       71       70 1
      64       25       27 1
      65       37       39 1
      66       46       47 1
      67       58       60 1
      68       72       70 1
      69       25       28 1
      70       49       51 1
      71       22       23 1
      72       52       55 1
@<TRIPOS>SUBSTRUCTURE
       1 RES             1 RESIDUE    0 **** ROOT      0
