@<TRIPOS>MOLECULE
RES
104 103 1 0 1
SMALL
NO_CHARGES
@<TRIPOS>CRYSIN
    8.9101    11.0946    28.7485    90.0000    90.0000    90.0000  1  1
@<TRIPOS>ATOM
       1 C           -0.1379    -0.3751    -1.1633 C             1 RES     
       2 O            0.0000     0.0000     0.0000 O             1 RES     
       3 O           -0.6324    -1.7330    -1.5651 O             1 RES     
       4 C            0.1584     0.4144    -2.3181 C             1 RES     
       5 H            1.2101     0.7007    -2.3049 H             1 RES     
       6 H           -0.4626     1.3101    -2.3042 H             1 RES     
       7 C           -0.1369    -0.3949    -3.5945 C             1 RES     
       8 H           -1.1886    -0.6812    -3.6078 H             1 RES     
       9 H            0.4841    -1.2906    -3.6084 H             1 RES     
      10 C            0.1761     0.4656    -4.8328 C             1 RES     
      11 H            1.2277     0.7518    -4.8196 H             1 RES     
      12 H           -0.4450     1.3612    -4.8189 H             1 RES     
      13 C           -0.1193    -0.3438    -6.1092 C             1 RES     
      14 H           -1.1710    -0.6300    -6.1224 H             1 RES     
      15 H            0.5018    -1.2394    -6.1231 H             1 RES     
      16 C            0.1937     0.5167    -7.3474 C             1 RES     
      17 H            1.2454     0.8030    -7.3342 H             1 RES     
      18 H           -0.4274     1.4124    -7.3336 H             1 RES     
      19 C           -0.1017    -0.2926    -8.6239 C             1 RES     
      20 H           -1.1533    -0.5788    -8.6371 H             1 RES     
      21 H            0.5194    -1.1882    -8.6378 H             1 RES     
      22 C            0.2114     0.5679    -9.8621 C             1 RES     
      23 H            1.2630     0.8541    -9.8489 H             1 RES     
      24 H           -0.4097     1.4635    -9.8482 H             1 RES     
      25 C           -0.0840    -0.2414   -11.1386 C             1 RES     
      26 H           -1.1357    -0.5277   -11.1518 H             1 RES     
      27 H            0.5371    -1.1371   -11.1524 H             1 RES     
      28 C            0.2290     0.6191   -12.3768 C             1 RES     
      29 H            1.2807     0.9053   -12.3636 H             1 RES     
      30 H           -0.3921     1.5147   -12.3629 H             1 RES     
      31 C           -0.0664    -0.1903   -13.6532 C             1 RES     
      32 H           -1.1180    -0.4765   -13.6664 H             1 RES     
      33 H            0.5547    -1.0859   -13.6671 H             1 RES     
      34 C            0.2466     0.6702   -14.8915 C             1 RES     
      35 H            1.2983     0.9565   -14.8783 H             1 RES     
      36 H           -0.3744     1.5659   -14.8776 H             1 RES     
      37 C           -0.0487    -0.1391   -16.1679 C             1 RES     
      38 H           -1.1004    -0.4253   -16.1811 H             1 RES     
      39 H            0.5723    -1.0348   -16.1818 H             1 RES     
      40 C            0.2643     0.7214   -17.4061 C             1 RES     
      41 H            1.3160     1.0076   -17.3929 H             1 RES     
      42 H           -0.3568     1.6170   -17.3923 H             1 RES     
      43 C           -0.0311    -0.0879   -18.6826 C             1 RES     
      44 H           -1.0827    -0.3742   -18.6958 H             1 RES     
      45 H            0.5900    -0.9836   -18.6965 H             1 RES     
      46 C            0.2819     0.7725   -19.9208 C             1 RES     
      47 H            1.3336     1.0588   -19.9076 H             1 RES     
      48 H           -0.3391     1.6682   -19.9069 H             1 RES     
      49 C            0.0000    -0.0000   -21.1392 C             1 RES     
      50 H            1.0054    -0.3663   -21.1396 H             1 RES     
      51 H           -0.2978     0.2267   -22.1418 H             1 RES     
      52 H           -0.6517    -0.7463   -20.7336 H             1 RES     
      53 C            0.5838    -3.5711   -22.7146 C             1 RES     
      54 H            1.5463    -4.0286   -22.6194 H             1 RES     
      55 H            0.3749    -3.3906   -23.7485 H             1 RES     
      56 H           -0.1627    -4.2220   -22.3081 H             1 RES     
      57 C           -0.9058    -2.5506    -2.7310 C             1 RES     
      58 H           -1.9775    -2.7376    -2.8001 H             1 RES     
      59 H           -0.3760    -3.4989    -2.6418 H             1 RES     
      60 C           -0.4309    -1.8148    -3.9978 C             1 RES     
      61 H            0.6407    -1.6277    -3.9287 H             1 RES     
      62 H           -0.9607    -0.8664    -4.0870 H             1 RES     
      63 C           -0.7213    -2.6831    -5.2360 C             1 RES     
      64 H           -1.7929    -2.8701    -5.3051 H             1 RES     
      65 H           -0.1914    -3.6314    -5.1468 H             1 RES     
      66 C           -0.2463    -1.9473    -6.5027 C             1 RES     
      67 H            0.8253    -1.7602    -6.4337 H             1 RES     
      68 H           -0.7762    -0.9989    -6.5919 H             1 RES     
      69 C           -0.5367    -2.8156    -7.7410 C             1 RES     
      70 H           -1.6083    -3.0026    -7.8100 H             1 RES     
      71 H           -0.0069    -3.7639    -7.6518 H             1 RES     
      72 C           -0.0618    -2.0798    -9.0077 C             1 RES     
      73 H            1.0099    -1.8927    -8.9386 H             1 RES     
      74 H           -0.5916    -1.1314    -9.0969 H             1 RES     
      75 C           -0.3522    -2.9481   -10.2460 C             1 RES     
      76 H           -1.4238    -3.1351   -10.3150 H             1 RES     
      77 H            0.1777    -3.8964   -10.1568 H             1 RES     
      78 C            0.1228    -2.2122   -11.5127 C             1 RES     
      79 H            1.1944    -2.0252   -11.4436 H             1 RES     
      80 H           -0.4071    -1.2639   -11.6019 H             1 RES     
      81 C           -0.1676    -3.0806   -12.7509 C             1 RES     
      82 H           -1.2392    -3.2676   -12.8200 H             1 RES     
      83 H            0.3622    -4.0289   -12.6617 H             1 RES     
      84 C            0.3074    -2.3447   -14.0177 C             1 RES     
      85 H            1.3790    -2.1577   -13.9486 H             1 RES     
      86 H           -0.2225    -1.3964   -14.1069 H             1 RES     
      87 C            0.0169    -3.2131   -15.2559 C             1 RES     
      88 H           -1.0547    -3.4001   -15.3250 H             1 RES     
      89 H            0.5468    -4.1614   -15.1667 H             1 RES     
      90 C            0.4919    -2.4772   -16.5226 C             1 RES     
      91 H            1.5635    -2.2902   -16.4536 H             1 RES     
      92 H           -0.0380    -1.5289   -16.6118 H             1 RES     
      93 C            0.2015    -3.3455   -17.7609 C             1 RES     
      94 H           -0.8701    -3.5326   -17.8299 H             1 RES     
      95 H            0.7313    -4.2939   -17.6717 H             1 RES     
      96 C            0.6765    -2.6097   -19.0276 C             1 RES     
      97 H            1.7481    -2.4227   -18.9585 H             1 RES     
      98 H            0.1466    -1.6614   -19.1168 H             1 RES     
      99 C            0.3860    -3.4780   -20.2659 C             1 RES     
     100 H           -0.6856    -3.6651   -20.3349 H             1 RES     
     101 H            0.9159    -4.4264   -20.1767 H             1 RES     
     102 C            0.8610    -2.7422   -21.5326 C             1 RES     
     103 H            1.9326    -2.5552   -21.4635 H             1 RES     
     104 H            0.3311    -1.7939   -21.6218 H             1 RES     
@<TRIPOS>BOND
       1       28       31 1
       2       75       72 1
       3       84       81 1
       4       87       90 1
       5       79       78 1
       6       77       75 1
       7       88       87 1
       8       71       69 1
       9       89       87 1
      10       40       43 1
      11       50       49 1
      12       28       30 1
      13       37       38 1
      14      102       99 1
      15       67       66 1
      16       10       12 1
      17       46       48 1
      18       99      101 1
      19       37       40 1
      20       93       96 1
      21       19       22 1
      22       37       34 1
      23       10       13 1
      24       72       69 1
      25       19       20 1
      26       93       90 1
      27       22       24 1
      28       65       63 1
      29        4        6 1
      30       91       90 1
      31       66       63 1
      32       93       95 1
      33       93       94 1
      34       51       49 1
      35       31       32 1
      36       16       18 1
      37       69       66 1
      38       61       60 1
      39       37       39 1
      40       80       78 1
      41       63       60 1
      42        4        5 1
      43      102       53 1
      44       40       41 1
      45       68       66 1
      46       58       57 1
      47       86       84 1
      48       19       21 1
      49       81       78 1
      50       16       19 1
      51       87       84 1
      52       34       35 1
      53       82       81 1
      54       74       72 1
      55       73       72 1
      56       96       98 1
      57       46       49 1
      58       85       84 1
      59       52       49 1
      60       76       75 1
      61       31       34 1
      62        7        8 1
      63       59       57 1
      64       92       90 1
      65       25       28 1
      66       40       42 1
      67       64       63 1
      68       43       44 1
      69       57        3 1
      70       99       96 1
      71       34       36 1
      72       62       60 1
      73       43       45 1
      74       53       54 1
      75        4        1 1
      76        7        9 1
      77        3        1 1
      78       22       25 1
      79        7       10 1
      80        7        4 1
      81      102      103 1
      82       13       14 1
      83       16       17 1
      84       10       11 1
      85       99      100 1
      86       25       26 1
      87       55       53 1
      88       28       29 1
      89       96       97 1
      90       22       23 1
      91        2        1 1
      92       25       27 1
      93       78       75 1
      94       46       47 1
      95       60       57 1
      96       83       81 1
      97       70       69 1
      98      102      104 1
      99       13       15 1
     100       56       53 1
     101       43       46 1
     102       31       33 1
     103       13       16 1
@<TRIPOS>SUBSTRUCTURE
       1 RES             1 RESIDUE    0 **** ROOT      0
