@<TRIPOS>MOLECULE
RES
110 109 1 0 1
SMALL
NO_CHARGES
@<TRIPOS>CRYSIN
    9.9623    11.7988    28.7485    90.0000    90.0000    90.0000  1  1
@<TRIPOS>ATOM
       1 C           -0.1379    -0.3751    -1.1633 C             1 RES     
       2 O            0.0000     0.0000     0.0000 O             1 RES     
       3 O           -0.6324    -1.7330    -1.5651 O             1 RES     
       4 C            0.1584     0.4144    -2.3181 C             1 RES     
       5 H            1.2101     0.7007    -2.3049 H             1 RES     
       6 H           -0.4626     1.3101    -2.3042 H             1 RES     
       7 C           -0.1369    -0.3949    -3.5945 C             1 RES     
       8 H           -1.1886    -0.6812    -3.6078 H             1 RES     
       9 H            0.4841    -1.2906    -3.6084 H             1 RES     
      10 C            0.1761     0.4656    -4.8328 C             1 RES     
      11 H            1.2277     0.7518    -4.8196 H             1 RES     
      12 H           -0.4450     1.3612    -4.8189 H             1 RES     
      13 C           -0.1193    -0.3438    -6.1092 C             1 RES     
      14 H           -1.1710    -0.6300    -6.1224 H             1 RES     
      15 H            0.5018    -1.2394    -6.1231 H             1 RES     
      16 C            0.1937     0.5167    -7.3474 C             1 RES     
      17 H            1.2454     0.8030    -7.3342 H             1 RES     
      18 H           -0.4274     1.4124    -7.3336 H             1 RES     
      19 C           -0.1017    -0.2926    -8.6239 C             1 RES     
      20 H           -1.1533    -0.5788    -8.6371 H             1 RES     
      21 H            0.5194    -1.1882    -8.6378 H             1 RES     
      22 C            0.2114     0.5679    -9.8621 C             1 RES     
      23 H            1.2630     0.8541    -9.8489 H             1 RES     
      24 H           -0.4097     1.4635    -9.8482 H             1 RES     
      25 C           -0.0840    -0.2414   -11.1386 C             1 RES     
      26 H           -1.1357    -0.5277   -11.1518 H             1 RES     
      27 H            0.5371    -1.1371   -11.1524 H             1 RES     
      28 C            0.2290     0.6191   -12.3768 C             1 RES     
      29 H            1.2807     0.9053   -12.3636 H             1 RES     
      30 H           -0.3921     1.5147   -12.3629 H             1 RES     
      31 C           -0.0664    -0.1903   -13.6532 C             1 RES     
      32 H           -1.1180    -0.4765   -13.6664 H             1 RES     
      33 H            0.5547    -1.0859   -13.6671 H             1 RES     
      34 C            0.2466     0.6702   -14.8915 C             1 RES     
      35 H            1.2983     0.9565   -14.8783 H             1 RES     
      36 H           -0.3744     1.5659   -14.8776 H             1 RES     
      37 C           -0.0487    -0.1391   -16.1679 C             1 RES     
      38 H           -1.1004    -0.4253   -16.1811 H             1 RES     
      39 H            0.5723    -1.0348   -16.1818 H             1 RES     
      40 C            0.2643     0.7214   -17.4061 C             1 RES     
      41 H            1.3160     1.0076   -17.3929 H             1 RES     
      42 H           -0.3568     1.6170   -17.3923 H             1 RES     
      43 C           -0.0311    -0.0879   -18.6826 C             1 RES     
      44 H           -1.0827    -0.3742   -18.6958 H             1 RES     
      45 H            0.5900    -0.9836   -18.6965 H             1 RES     
      46 C            0.2819     0.7725   -19.9208 C             1 RES     
      47 H            1.3336     1.0588   -19.9076 H             1 RES     
      48 C            0.0000    -0.0000   -21.1392 C             1 RES     
      49 H            1.0054    -0.3663   -21.1396 H             1 RES     
      50 H           -0.2978     0.2267   -22.1418 H             1 RES     
      51 H           -0.6517    -0.7463   -20.7336 H             1 RES     
      52 C            0.5838    -3.5711   -22.7146 C             1 RES     
      53 H            1.5463    -4.0286   -22.6194 H             1 RES     
      54 H            0.3749    -3.3906   -23.7485 H             1 RES     
      55 H           -0.1627    -4.2220   -22.3081 H             1 RES     
      56 C           -0.9058    -2.5506    -2.7310 C             1 RES     
      57 H           -1.9775    -2.7376    -2.8001 H             1 RES     
      58 H           -0.3760    -3.4989    -2.6418 H             1 RES     
      59 C           -0.4309    -1.8148    -3.9978 C             1 RES     
      60 H            0.6407    -1.6277    -3.9287 H             1 RES     
      61 H           -0.9607    -0.8664    -4.0870 H             1 RES     
      62 C           -0.7213    -2.6831    -5.2360 C             1 RES     
      63 H           -1.7929    -2.8701    -5.3051 H             1 RES     
      64 H           -0.1914    -3.6314    -5.1468 H             1 RES     
      65 C           -0.2463    -1.9473    -6.5027 C             1 RES     
      66 H            0.8253    -1.7602    -6.4337 H             1 RES     
      67 H           -0.7762    -0.9989    -6.5919 H             1 RES     
      68 C           -0.5367    -2.8156    -7.7410 C             1 RES     
      69 H           -1.6083    -3.0026    -7.8100 H             1 RES     
      70 H           -0.0069    -3.7639    -7.6518 H             1 RES     
      71 C           -0.0618    -2.0798    -9.0077 C             1 RES     
      72 H            1.0099    -1.8927    -8.9386 H             1 RES     
      73 H           -0.5916    -1.1314    -9.0969 H             1 RES     
      74 C           -0.3522    -2.9481   -10.2460 C             1 RES     
      75 H           -1.4238    -3.1351   -10.3150 H             1 RES     
      76 H            0.1777    -3.8964   -10.1568 H             1 RES     
      77 C            0.1228    -2.2122   -11.5127 C             1 RES     
      78 H            1.1944    -2.0252   -11.4436 H             1 RES     
      79 H           -0.4071    -1.2639   -11.6019 H             1 RES     
      80 C           -0.1676    -3.0806   -12.7509 C             1 RES     
      81 H           -1.2392    -3.2676   -12.8200 H             1 RES     
      82 H            0.3622    -4.0289   -12.6617 H             1 RES     
      83 C            0.3074    -2.3447   -14.0177 C             1 RES     
      84 H            1.3790    -2.1577   -13.9486 H             1 RES     
      85 H           -0.2225    -1.3964   -14.1069 H             1 RES     
      86 C            0.0169    -3.2131   -15.2559 C             1 RES     
      87 H           -1.0547    -3.4001   -15.3250 H             1 RES     
      88 H            0.5468    -4.1614   -15.1667 H             1 RES     
      89 C            0.4919    -2.4772   -16.5226 C             1 RES     
      90 H            1.5635    -2.2902   -16.4536 H             1 RES     
      91 H           -0.0380    -1.5289   -16.6118 H             1 RES     
      92 C            0.2015    -3.3455   -17.7609 C             1 RES     
      93 H           -0.8701    -3.5326   -17.8299 H             1 RES     
      94 H            0.7313    -4.2939   -17.6717 H             1 RES     
      95 C            0.6765    -2.6097   -19.0276 C             1 RES     
      96 H            1.7481    -2.4227   -18.9585 H             1 RES     
      97 H            0.1466    -1.6614   -19.1168 H             1 RES     
      98 C            0.3860    -3.4780   -20.2659 C             1 RES     
      99 H           -0.6856    -3.6651   -20.3349 H             1 RES     
     100 H            0.9159    -4.4264   -20.1767 H             1 RES     
     101 C            0.8610    -2.7422   -21.5326 C             1 RES     
     102 H            0.3311    -1.7939   -21.6218 H             1 RES     
     103 C            2.2374    -2.5020   -21.4439 C             1 RES     
     104 H            2.4147    -3.2388   -22.1992 H             1 RES     
     105 H            2.9849    -2.5843   -20.6825 H             1 RES     
     106 H            2.2792    -1.5255   -21.8809 H             1 RES     
     107 C           -0.5158     1.9229   -19.9030 C             1 RES     
     108 H            0.1483     2.3724   -19.1945 H             1 RES     
     109 H           -1.5273     2.1533   -19.6403 H             1 RES     
     110 H           -0.3055     2.3041   -20.8811 H             1 RES     
@<TRIPOS>BOND
       1      107      110 1
       2        4        6 1
       3      101      103 1
       4       84       83 1
       5       40       37 1
       6        1        2 1
       7      101       52 1
       8        3        1 1
       9       92       89 1
      10       70       68 1
      11       82       80 1
      12       92       94 1
      13       40       41 1
      14       77       74 1
      15       43       44 1
      16       34       37 1
      17       86       89 1
      18      101      102 1
      19       13       15 1
      20       98       95 1
      21       81       80 1
      22        7        8 1
      23       25       26 1
      24       10       12 1
      25       98      100 1
      26       67       65 1
      27       16       18 1
      28       37       39 1
      29       10       13 1
      30       57       56 1
      31       90       89 1
      32      101       98 1
      33       91       89 1
      34       58       56 1
      35       50       48 1
      36       66       65 1
      37       34       36 1
      38       16       17 1
      39       64       62 1
      40       22       25 1
      41       76       74 1
      42       54       52 1
      43       59       56 1
      44       28       29 1
      45        4        1 1
      46       31       33 1
      47       46       48 1
      48      103      105 1
      49       19       20 1
      50       16       19 1
      51       63       62 1
      52       87       86 1
      53       75       74 1
      54       34       35 1
      55       72       71 1
      56       74       71 1
      57       46       47 1
      58       62       59 1
      59       10       11 1
      60       98       99 1
      61       49       48 1
      62       22       23 1
      63      104      103 1
      64        4        7 1
      65       88       86 1
      66       69       68 1
      67       95       96 1
      68       13       14 1
      69       25       28 1
      70       73       71 1
      71       55       52 1
      72      103      106 1
      73       83       80 1
      74       61       59 1
      75       31       34 1
      76       13       16 1
      77      107      109 1
      78       60       59 1
      79       10        7 1
      80       31       32 1
      81       65       62 1
      82       28       30 1
      83       43       46 1
      84       68       65 1
      85       43       45 1
      86       37       38 1
      87       28       31 1
      88       25       27 1
      89       51       48 1
      90       22       24 1
      91       19       22 1
      92        7        9 1
      93       80       77 1
      94       71       68 1
      95        4        5 1
      96       92       93 1
      97       52       53 1
      98       92       95 1
      99       79       77 1
     100       78       77 1
     101       86       83 1
     102       56        3 1
     103      107       46 1
     104       40       42 1
     105       40       43 1
     106       19       21 1
     107       85       83 1
     108      108      107 1
     109       95       97 1
@<TRIPOS>SUBSTRUCTURE
       1 RES             1 RESIDUE    0 **** ROOT      0
