@<TRIPOS>MOLECULE
RES
51 50 1 0 1
SMALL
NO_CHARGES
@<TRIPOS>CRYSIN
    7.3661     7.0722    26.1229    90.0000    90.0000    90.0000  1  1
@<TRIPOS>ATOM
       1 C            0.0462     0.0422   -20.0610 C             1 RES     
       2 H            0.5817     1.0152   -20.0858 H             1 RES     
       3 H           -0.6011    -0.0303   -20.9603 H             1 RES     
       4 H            0.7885    -0.7839   -20.0896 H             1 RES     
       5 C           -0.8271    -0.0958    -1.1098 C             1 RES     
       6 H           -1.5650     0.7346    -1.0959 H             1 RES     
       7 H           -1.4026    -1.0498    -1.0894 H             1 RES     
       8 C            0.0325    -0.0025    -2.3725 C             1 RES     
       9 H            0.7707    -0.8343    -2.3709 H             1 RES     
      10 H            0.5828     0.9639    -2.3646 H             1 RES     
      11 C           -0.8313    -0.0898    -3.6361 C             1 RES     
      12 H           -1.5703     0.7419    -3.6337 H             1 RES     
      13 H           -1.3810    -1.0570    -3.6383 H             1 RES     
      14 C            0.0319     0.0045    -4.8999 C             1 RES     
      15 H            0.7713    -0.8267    -4.9019 H             1 RES     
      16 H            0.5810     0.9720    -4.8975 H             1 RES     
      17 C           -0.8314    -0.0841    -6.1640 C             1 RES     
      18 H           -1.5714     0.7466    -6.1621 H             1 RES     
      19 H           -1.3798    -1.0520    -6.1666 H             1 RES     
      20 C            0.0321     0.0113    -7.4275 C             1 RES     
      21 H            0.7729    -0.8187    -7.4291 H             1 RES     
      22 H            0.5798     0.9796    -7.4251 H             1 RES     
      23 C           -0.8304    -0.0789    -8.6920 C             1 RES     
      24 H           -1.5719     0.7504    -8.6905 H             1 RES     
      25 H           -1.3770    -1.0478    -8.6947 H             1 RES     
      26 C            0.0337     0.0178    -9.9550 C             1 RES     
      27 H            0.7761    -0.8107    -9.9560 H             1 RES     
      28 H            0.5795     0.9873    -9.9524 H             1 RES     
      29 C           -0.8278    -0.0742   -11.2201 C             1 RES     
      30 H           -1.5710     0.7537   -11.2191 H             1 RES     
      31 H           -1.3726    -1.0441   -11.2230 H             1 RES     
      32 C            0.0369     0.0242   -12.4825 C             1 RES     
      33 H            0.7809    -0.8029   -12.4830 H             1 RES     
      34 H            0.5808     0.9947   -12.4795 H             1 RES     
      35 C           -0.8236    -0.0695   -13.7481 C             1 RES     
      36 H           -1.5683     0.7570   -13.7476 H             1 RES     
      37 H           -1.3665    -1.0405   -13.7513 H             1 RES     
      38 C            0.0417     0.0305   -15.0100 C             1 RES     
      39 H            0.7872    -0.7953   -15.0101 H             1 RES     
      40 H            0.5839     1.0019   -15.0067 H             1 RES     
      41 C           -0.8179    -0.0645   -16.2761 C             1 RES     
      42 H           -1.5640     0.7608   -16.2760 H             1 RES     
      43 H           -1.3594    -1.0364   -16.2797 H             1 RES     
      44 C            0.0477     0.0368   -17.5376 C             1 RES     
      45 H            0.7942    -0.7881   -17.5379 H             1 RES     
      46 H            0.5886     1.0090   -17.5343 H             1 RES     
      47 C           -0.8119    -0.0591   -18.8033 C             1 RES     
      48 H           -1.5586     0.7648   -18.8115 H             1 RES     
      49 H           -1.3525    -1.0307   -18.8153 H             1 RES     
      50 O           -0.0240     0.0098     0.0339 O             1 RES     
      51 H            0.4061    -0.8758     0.1626 H             1 RES     
@<TRIPOS>BOND
       1       29       30 1
       2       41       38 1
       3       14       15 1
       4       32       35 1
       5       20       22 1
       6       14       16 1
       7       26       27 1
       8       29       31 1
       9        5        6 1
      10       14       17 1
      11       41       44 1
      12       20       21 1
      13       26       28 1
      14        1        3 1
      15        8        9 1
      16       23       26 1
      17       26       29 1
      18       11       13 1
      19        5        8 1
      20        1        4 1
      21       17       18 1
      22       50        5 1
      23       11       14 1
      24        5        7 1
      25        8       11 1
      26       23       20 1
      27        8       10 1
      28       32       33 1
      29       17       19 1
      30       41       42 1
      31       50       51 1
      32       39       38 1
      33        2        1 1
      34       17       20 1
      35       35       37 1
      36       40       38 1
      37       23       24 1
      38       47        1 1
      39       44       46 1
      40       35       36 1
      41       44       47 1
      42       44       45 1
      43       32       34 1
      44       47       49 1
      45       41       43 1
      46       23       25 1
      47       47       48 1
      48       29       32 1
      49       11       12 1
      50       35       38 1
@<TRIPOS>SUBSTRUCTURE
       1 RES             1 RESIDUE    0 **** ROOT      0
