@<TRIPOS>MOLECULE
RES
50 49 1 0 1
SMALL
NO_CHARGES
@<TRIPOS>CRYSIN
    8.0991    25.1520     8.3129    90.0000    90.0000    90.0000  1  1
@<TRIPOS>ATOM
       1 C           -0.0079   -17.6652    -0.0532 C             1 RES     
       2 H            0.8447   -17.6703     0.6591 H             1 RES     
       3 H            0.0658   -18.5635    -0.7016 H             1 RES     
       4 H           -0.9599   -17.7147     0.5170 H             1 RES     
       5 C            0.4138    -0.0110     0.2340 C             1 RES     
       6 H           -0.5859     0.0721     0.7126 H             1 RES     
       7 H            1.1741    -0.1239     1.0371 H             1 RES     
       8 C            0.4486    -1.2485    -0.6757 C             1 RES     
       9 H            1.4465    -1.3201    -1.1613 H             1 RES     
      10 H           -0.3297    -1.1572    -1.4637 H             1 RES     
      11 C            0.1940    -2.5268     0.1319 C             1 RES     
      12 H           -0.8018    -2.4627     0.6239 H             1 RES     
      13 H            0.9758    -2.6201     0.9179 H             1 RES     
      14 C            0.2350    -3.7673    -0.7688 C             1 RES     
      15 H            1.2266    -3.8214    -1.2704 H             1 RES     
      16 H           -0.5557    -3.6859    -1.5470 H             1 RES     
      17 C            0.0192    -5.0455     0.0498 C             1 RES     
      18 H           -0.9696    -5.0000     0.5574 H             1 RES     
      19 H            0.8155    -5.1161     0.8237 H             1 RES     
      20 C            0.0754    -6.2911    -0.8429 C             1 RES     
      21 H            1.0590    -6.3239    -1.3616 H             1 RES     
      22 H           -0.7308    -6.2358    -1.6073 H             1 RES     
      23 C           -0.0910    -7.5675    -0.0099 C             1 RES     
      24 H           -1.0714    -7.5440     0.5153 H             1 RES     
      25 H            0.7207    -7.6097     0.7499 H             1 RES     
      26 C           -0.0165    -8.8195    -0.8921 C             1 RES     
      27 H            0.9581    -8.8308    -1.4285 H             1 RES     
      28 H           -0.8376    -8.7931    -1.6421 H             1 RES     
      29 C           -0.1336   -10.0918    -0.0443 C             1 RES     
      30 H           -1.1047   -10.0882     0.4984 H             1 RES     
      31 H            0.6923   -10.1063     0.7009 H             1 RES     
      32 C           -0.0435   -11.3496    -0.9164 C             1 RES     
      33 H            0.9221   -11.3437    -1.4688 H             1 RES     
      34 H           -0.8773   -11.3483    -1.6528 H             1 RES     
      35 C           -0.1198   -12.6171    -0.0567 C             1 RES     
      36 H           -1.0820   -12.6280     0.5016 H             1 RES     
      37 H            0.7182   -12.6101     0.6752 H             1 RES     
      38 C           -0.0210   -13.8793    -0.9214 C             1 RES     
      39 H            0.9372   -13.8629    -1.4864 H             1 RES     
      40 H           -0.8642   -13.8946    -1.6469 H             1 RES     
      41 C           -0.0708   -15.1430    -0.0542 C             1 RES     
      42 H           -1.0263   -15.1617     0.5153 H             1 RES     
      43 H            0.7756   -15.1241     0.6677 H             1 RES     
      44 C            0.0298   -16.4068    -0.9157 C             1 RES     
      45 H            0.9827   -16.3943    -1.4885 H             1 RES     
      46 H           -0.8182   -16.4375    -1.6342 H             1 RES     
      47 C            0.7097     1.2948    -0.5141 C             1 RES     
      48 O            1.9944     1.2957    -1.0680 O             1 RES     
      49 O           -0.2580     1.5885    -1.4871 O             1 RES     
      50 H           -0.0670     1.0175    -2.2758 H             1 RES     
@<TRIPOS>BOND
       1       36       35 1
       2       15       14 1
       3        3        1 1
       4       12       11 1
       5       16       14 1
       6       37       35 1
       7       41       38 1
       8        4        1 1
       9       43       41 1
      10       20       17 1
      11       47       48 1
      12       10        8 1
      13       22       20 1
      14       34       32 1
      15       44       41 1
      16       17       14 1
      17       18       17 1
      18       44       45 1
      19       26       29 1
      20       33       32 1
      21       42       41 1
      22       26       23 1
      23       30       29 1
      24       14       11 1
      25        6        5 1
      26        1        2 1
      27       32       29 1
      28       44       46 1
      29       24       23 1
      30        8        5 1
      31        9        8 1
      32       35       32 1
      33       21       20 1
      34       49       47 1
      35        7        5 1
      36       27       26 1
      37        5       47 1
      38       38       35 1
      39       13       11 1
      40       28       26 1
      41       19       17 1
      42       49       50 1
      43       39       38 1
      44       11        8 1
      45       31       29 1
      46       25       23 1
      47       23       20 1
      48       40       38 1
      49       44        1 1
@<TRIPOS>SUBSTRUCTURE
       1 RES             1 RESIDUE    0 **** ROOT      0
