@<TRIPOS>MOLECULE
RES
9927 9825 1 0 1
SMALL
NO_CHARGES
@<TRIPOS>CRYSIN
   72.4279    64.3998    39.2792    90.0000    90.0000    90.0000  1  1
@<TRIPOS>ATOM
       1 N           32.8634    16.4317     5.0000 N             1 RES     
       2 C           32.9748    17.8939     5.2163 C             1 RES     
       3 H           33.8764    18.3142     4.7226 H             1 RES     
       4 H           33.0659    18.1317     6.3003 H             1 RES     
       5 H           32.0796    18.4257     4.8234 H             1 RES     
       6 C           34.0838    15.7617     5.5091 C             1 RES     
       7 H           34.0367    14.6627     5.3400 H             1 RES     
       8 H           34.2084    15.9349     6.6018 H             1 RES     
       9 H           35.0008    16.1522     5.0194 H             1 RES     
      10 C           31.7005    15.9331     5.7732 C             1 RES     
      11 H           31.8167    16.1428     6.8606 H             1 RES     
      12 H           31.5804    14.8325     5.6540 H             1 RES     
      13 H           30.7562    16.4174     5.4364 H             1 RES     
      14 C           32.6303    16.1126     3.5586 C             1 RES     
      15 H           31.6865    16.5896     3.2097 H             1 RES     
      16 H           32.5060    15.0140     3.4260 H             1 RES     
      17 C           33.7406    16.5579     2.5960 C             1 RES     
      18 H           34.7055    16.0485     2.7918 H             1 RES     
      19 H           33.8681    17.6587     2.5707 H             1 RES     
      20 P           32.8149    17.3902     0.4318 P             1 RES     
      21 O           32.6145    17.0286    -1.1139 O             1 RES     
      22 O           33.5725    16.1883     1.1676 O             1 RES     
      23 O           33.7224    18.7068     0.4849 O             1 RES     
      24 O           31.3534    17.5650     1.0592 O             1 RES     
      25 C           31.9102    18.1634    -1.7631 C             1 RES     
      26 H           32.5099    19.0680    -1.6628 H             1 RES     
      27 H           30.9431    18.3129    -1.2830 H             1 RES     
      28 C           32.2882    16.4653    -3.5797 C             1 RES     
      29 H           33.3550    16.4632    -3.3557 H             1 RES     
      30 H           31.7882    15.7080    -2.9759 H             1 RES     
      31 C           31.6989    17.8508    -3.2561 C             1 RES     
      32 H           30.6322    17.8529    -3.4801 H             1 RES     
      33 C           33.3941    16.7864    -5.4006 C             1 RES     
      34 O           34.1870    17.3021    -4.6142 O             1 RES     
      35 O           32.0866    16.1670    -5.0049 O             1 RES     
      36 C           33.5922    16.6843    -6.8131 C             1 RES     
      37 H           32.7857    17.2010    -7.3334 H             1 RES     
      38 H           33.5919    15.6316    -7.0959 H             1 RES     
      39 C           34.9412    17.3188    -7.1991 C             1 RES     
      40 H           35.7476    16.8020    -6.6788 H             1 RES     
      41 H           34.9415    18.3714    -6.9162 H             1 RES     
      42 C           35.1505    17.1962    -8.7199 C             1 RES     
      43 H           34.3441    17.7130    -9.2402 H             1 RES     
      44 H           35.1502    16.1435    -9.0027 H             1 RES     
      45 C           36.4996    17.8307    -9.1059 C             1 RES     
      46 H           37.3060    17.3139    -8.5856 H             1 RES     
      47 H           36.4999    18.8834    -8.8231 H             1 RES     
      48 C           36.7089    17.7081   -10.6267 C             1 RES     
      49 H           35.9024    18.2249   -11.1470 H             1 RES     
      50 H           36.7086    16.6555   -10.9096 H             1 RES     
      51 C           38.0579    18.3427   -11.0127 C             1 RES     
      52 H           38.8643    17.8259   -10.4924 H             1 RES     
      53 H           38.0582    19.3953   -10.7299 H             1 RES     
      54 C           38.2672    18.2201   -12.5335 C             1 RES     
      55 H           37.4608    18.7369   -13.0538 H             1 RES     
      56 H           38.2669    17.1674   -12.8164 H             1 RES     
      57 C           39.6163    18.8546   -12.9196 C             1 RES     
      58 H           40.4227    18.3378   -12.3993 H             1 RES     
      59 H           39.6166    19.9073   -12.6367 H             1 RES     
      60 C           39.8256    18.7320   -14.4403 C             1 RES     
      61 H           39.0191    19.2488   -14.9606 H             1 RES     
      62 H           39.8253    17.6794   -14.7232 H             1 RES     
      63 C           41.1746    19.3666   -14.8264 C             1 RES     
      64 H           41.9810    18.8498   -14.3061 H             1 RES     
      65 H           41.1749    20.4192   -14.5435 H             1 RES     
      66 C           41.3839    19.2440   -16.3472 C             1 RES     
      67 H           40.5775    19.7608   -16.8675 H             1 RES     
      68 H           41.3836    18.1913   -16.6300 H             1 RES     
      69 C           42.7330    19.8785   -16.7332 C             1 RES     
      70 H           43.5394    19.3617   -16.2129 H             1 RES     
      71 H           42.7333    20.9312   -16.4503 H             1 RES     
      72 C           42.9423    19.7559   -18.2540 C             1 RES     
      73 H           42.1358    20.2727   -18.7743 H             1 RES     
      74 H           42.9420    18.7033   -18.5368 H             1 RES     
      75 C           44.2913    20.3904   -18.6400 C             1 RES     
      76 H           45.0977    19.8737   -18.1197 H             1 RES     
      77 H           44.2916    21.4431   -18.3572 H             1 RES     
      78 C           44.5006    20.2679   -20.1608 C             1 RES     
      79 H           43.6942    20.7847   -20.6811 H             1 RES     
      80 H           44.5003    19.2152   -20.4437 H             1 RES     
      81 C           45.8497    20.9024   -20.5468 C             1 RES     
      82 H           46.6561    20.3856   -20.0265 H             1 RES     
      83 H           45.8500    21.9551   -20.2640 H             1 RES     
      84 C           46.0495    20.7854   -21.9985 C             1 RES     
      85 H           46.5340    19.8421   -21.8558 H             1 RES     
      86 H           46.5677    21.3427   -22.7508 H             1 RES     
      87 H           45.0374    20.6237   -22.3080 H             1 RES     
      88 C           31.8109    18.2771    -5.3250 C             1 RES     
      89 O           31.0766    17.2935    -5.4051 O             1 RES     
      90 O           32.3481    18.8339    -4.0400 O             1 RES     
      91 C           32.2627    19.0536    -6.4375 C             1 RES     
      92 H           33.3519    19.0386    -6.4751 H             1 RES     
      93 H           31.9169    20.0802    -6.3171 H             1 RES     
      94 C           31.6961    18.4715    -7.7459 C             1 RES     
      95 H           30.6069    18.4865    -7.7082 H             1 RES     
      96 H           32.0420    17.4449    -7.8662 H             1 RES     
      97 C           32.1799    19.3188    -8.9374 C             1 RES     
      98 H           33.2692    19.3038    -8.9750 H             1 RES     
      99 H           31.8341    20.3454    -8.8170 H             1 RES     
     100 C           31.6134    18.7367   -10.2457 C             1 RES     
     101 H           30.5241    18.7517   -10.2081 H             1 RES     
     102 H           31.9592    17.7101   -10.3661 H             1 RES     
     103 C           32.0971    19.5840   -11.4372 C             1 RES     
     104 H           33.1864    19.5690   -11.4749 H             1 RES     
     105 H           31.7513    20.6107   -11.3169 H             1 RES     
     106 C           31.5306    19.0019   -12.7456 C             1 RES     
     107 H           30.4413    19.0169   -12.7079 H             1 RES     
     108 H           31.8764    17.9753   -12.8660 H             1 RES     
     109 C           32.0144    19.8492   -13.9371 C             1 RES     
     110 H           33.1036    19.8343   -13.9747 H             1 RES     
     111 H           31.6685    20.8759   -13.8167 H             1 RES     
     112 C           31.4478    19.2672   -15.2454 C             1 RES     
     113 H           30.3586    19.2821   -15.2078 H             1 RES     
     114 H           31.7937    18.2405   -15.3658 H             1 RES     
     115 C           31.9316    20.1144   -16.4369 C             1 RES     
     116 H           33.0208    20.0995   -16.4746 H             1 RES     
     117 H           31.5858    21.1411   -16.3166 H             1 RES     
     118 C           31.3651    19.5324   -17.7453 C             1 RES     
     119 H           30.2758    19.5473   -17.7077 H             1 RES     
     120 H           31.7109    18.5057   -17.8657 H             1 RES     
     121 C           31.8488    20.3797   -18.9368 C             1 RES     
     122 H           32.9381    20.3647   -18.9745 H             1 RES     
     123 H           31.5030    21.4063   -18.8164 H             1 RES     
     124 C           31.2823    19.7976   -20.2452 C             1 RES     
     125 H           30.1930    19.8126   -20.2075 H             1 RES     
     126 H           31.6281    18.7709   -20.3655 H             1 RES     
     127 C           31.7661    20.6449   -21.4367 C             1 RES     
     128 H           32.8553    20.6299   -21.4743 H             1 RES     
     129 H           31.4202    21.6715   -21.3163 H             1 RES     
     130 C           31.1995    20.0628   -22.7450 C             1 RES     
     131 H           30.1103    20.0778   -22.7074 H             1 RES     
     132 H           31.5453    19.0362   -22.8654 H             1 RES     
     133 C           31.6833    20.9101   -23.9365 C             1 RES     
     134 H           32.7725    20.8951   -23.9742 H             1 RES     
     135 H           31.3375    21.9367   -23.8162 H             1 RES     
     136 C           31.1167    20.3280   -25.2449 C             1 RES     
     137 H           30.0275    20.3430   -25.2073 H             1 RES     
     138 H           31.4626    19.3014   -25.3653 H             1 RES     
     139 C           31.5785    21.1368   -26.3822 C             1 RES     
     140 H           30.7160    21.7628   -26.2873 H             1 RES     
     141 H           31.7804    20.9620   -27.4185 H             1 RES     
     142 H           32.4212    21.6191   -25.9311 H             1 RES     
     143 N            5.4772    49.2950     5.0000 N             1 RES     
     144 C            5.9044    50.6979     5.2163 C             1 RES     
     145 H            6.8759    50.9118     4.7226 H             1 RES     
     146 H            6.0452    50.9102     6.3003 H             1 RES     
     147 H            5.1465    51.4118     4.8234 H             1 RES     
     148 C            6.5224    48.3753     5.5091 C             1 RES     
     149 H            6.2372    47.3130     5.3400 H             1 RES     
     150 H            6.6818    48.5173     6.6018 H             1 RES     
     151 H            7.5025    48.5569     5.0194 H             1 RES     
     152 C            4.2337    49.0616     5.7732 C             1 RES     
     153 H            4.3928    49.2410     6.8606 H             1 RES     
     154 H            3.8768    48.0136     5.6540 H             1 RES     
     155 H            3.4175    49.7399     5.4364 H             1 RES     
     156 C            5.1803    49.0344     3.5586 C             1 RES     
     157 H            4.3630    49.7055     3.2097 H             1 RES     
     158 H            4.8197    47.9892     3.4260 H             1 RES     
     159 C            6.3609    49.2271     2.5960 C             1 RES     
     160 H            7.1917    48.5199     2.7918 H             1 RES     
     161 H            6.7250    50.2738     2.5707 H             1 RES     
     162 P            5.6386    50.2411     0.4318 P             1 RES     
     163 O            5.3643    49.9318    -1.1139 O             1 RES     
     164 O            6.1163    48.9030     1.1676 O             1 RES     
     165 O            6.8111    51.3285     0.4849 O             1 RES     
     166 O            4.2503    50.7300     1.0592 O             1 RES     
     167 C            4.9240    51.1927    -1.7631 C             1 RES     
     168 H            5.7063    51.9451    -1.6628 H             1 RES     
     169 H            4.0127    51.5493    -1.2830 H             1 RES     
     170 C            4.9232    49.4531    -3.5797 C             1 RES     
     171 H            5.9639    49.2187    -3.3557 H             1 RES     
     172 H            4.2702    48.8229    -2.9759 H             1 RES     
     173 C            4.6498    50.9337    -3.2561 C             1 RES     
     174 H            3.6091    51.1681    -3.4801 H             1 RES     
     175 C            6.0725    49.5257    -5.4006 C             1 RES     
     176 O            6.9586    49.8563    -4.6142 O             1 RES     
     177 O            4.6614    49.2058    -5.0049 O             1 RES     
     178 C            6.2435    49.3828    -6.8131 C             1 RES     
     179 H            5.5690    50.0628    -7.3334 H             1 RES     
     180 H            6.0140    48.3555    -7.0959 H             1 RES     
     181 C            7.6984    49.7084    -7.1991 C             1 RES     
     182 H            8.3729    49.0284    -6.6788 H             1 RES     
     183 H            7.9279    50.7357    -6.9162 H             1 RES     
     184 C            7.8760    49.5432    -8.7199 C             1 RES     
     185 H            7.2014    50.2232    -9.2402 H             1 RES     
     186 H            7.6465    48.5158    -9.0027 H             1 RES     
     187 C            9.3308    49.8687    -9.1059 C             1 RES     
     188 H           10.0054    49.1887    -8.5856 H             1 RES     
     189 H            9.5603    50.8960    -8.8231 H             1 RES     
     190 C            9.5084    49.7035   -10.6267 C             1 RES     
     191 H            8.8339    50.3835   -11.1470 H             1 RES     
     192 H            9.2789    48.6761   -10.9096 H             1 RES     
     193 C           10.9633    50.0290   -11.0127 C             1 RES     
     194 H           11.6378    49.3490   -10.4924 H             1 RES     
     195 H           11.1928    51.0563   -10.7299 H             1 RES     
     196 C           11.1408    49.8638   -12.5335 C             1 RES     
     197 H           10.4663    50.5438   -13.0538 H             1 RES     
     198 H           10.9113    48.8364   -12.8164 H             1 RES     
     199 C           12.5957    50.1893   -12.9196 C             1 RES     
     200 H           13.2702    49.5093   -12.3993 H             1 RES     
     201 H           12.8252    51.2166   -12.6367 H             1 RES     
     202 C           12.7733    50.0241   -14.4403 C             1 RES     
     203 H           12.0988    50.7041   -14.9606 H             1 RES     
     204 H           12.5438    48.9968   -14.7232 H             1 RES     
     205 C           14.2281    50.3496   -14.8264 C             1 RES     
     206 H           14.9027    49.6696   -14.3061 H             1 RES     
     207 H           14.4577    51.3769   -14.5435 H             1 RES     
     208 C           14.4057    50.1844   -16.3472 C             1 RES     
     209 H           13.7312    50.8644   -16.8675 H             1 RES     
     210 H           14.1762    49.1571   -16.6300 H             1 RES     
     211 C           15.8606    50.5099   -16.7332 C             1 RES     
     212 H           16.5351    49.8299   -16.2129 H             1 RES     
     213 H           16.0901    51.5373   -16.4503 H             1 RES     
     214 C           16.0382    50.3447   -18.2540 C             1 RES     
     215 H           15.3636    51.0247   -18.7743 H             1 RES     
     216 H           15.8086    49.3174   -18.5368 H             1 RES     
     217 C           17.4930    50.6702   -18.6400 C             1 RES     
     218 H           18.1675    49.9902   -18.1197 H             1 RES     
     219 H           17.7225    51.6976   -18.3572 H             1 RES     
     220 C           17.6706    50.5050   -20.1608 C             1 RES     
     221 H           16.9961    51.1850   -20.6811 H             1 RES     
     222 H           17.4411    49.4777   -20.4437 H             1 RES     
     223 C           19.1254    50.8306   -20.5468 C             1 RES     
     224 H           19.8000    50.1506   -20.0265 H             1 RES     
     225 H           19.3550    51.8579   -20.2640 H             1 RES     
     226 C           19.2950    50.6729   -21.9985 C             1 RES     
     227 H           19.5624    49.6467   -21.8558 H             1 RES     
     228 H           19.9222    51.1040   -22.7508 H             1 RES     
     229 H           18.2720    50.7354   -22.3080 H             1 RES     
     230 C            4.8518    51.3253    -5.3250 C             1 RES     
     231 O            3.9210    50.5253    -5.4051 O             1 RES     
     232 O            5.4974    51.7518    -4.0400 O             1 RES     
     233 C            5.4619    51.9848    -6.4375 C             1 RES     
     234 H            6.5218    51.7330    -6.4751 H             1 RES     
     235 H            5.3479    53.0621    -6.3171 H             1 RES     
     236 C            4.7822    51.5401    -7.7459 C             1 RES     
     237 H            3.7224    51.7919    -7.7082 H             1 RES     
     238 H            4.8962    50.4628    -7.8662 H             1 RES     
     239 C            5.4389    52.2617    -8.9374 C             1 RES     
     240 H            6.4987    52.0099    -8.9750 H             1 RES     
     241 H            5.3249    53.3390    -8.8170 H             1 RES     
     242 C            4.7592    51.8170   -10.2457 C             1 RES     
     243 H            3.6993    52.0688   -10.2081 H             1 RES     
     244 H            4.8731    50.7396   -10.3661 H             1 RES     
     245 C            5.4159    52.5386   -11.4372 C             1 RES     
     246 H            6.4757    52.2868   -11.4749 H             1 RES     
     247 H            5.3019    53.6159   -11.3169 H             1 RES     
     248 C            4.7361    52.0938   -12.7456 C             1 RES     
     249 H            3.6763    52.3456   -12.7079 H             1 RES     
     250 H            4.8501    51.0165   -12.8660 H             1 RES     
     251 C            5.3928    52.8154   -13.9371 C             1 RES     
     252 H            6.4527    52.5636   -13.9747 H             1 RES     
     253 H            5.2789    53.8928   -13.8167 H             1 RES     
     254 C            4.7131    52.3707   -15.2454 C             1 RES     
     255 H            3.6533    52.6225   -15.2078 H             1 RES     
     256 H            4.8271    51.2934   -15.3658 H             1 RES     
     257 C            5.3698    53.0923   -16.4369 C             1 RES     
     258 H            6.4296    52.8405   -16.4746 H             1 RES     
     259 H            5.2558    54.1696   -16.3166 H             1 RES     
     260 C            4.6901    52.6476   -17.7453 C             1 RES     
     261 H            3.6302    52.8994   -17.7077 H             1 RES     
     262 H            4.8041    51.5703   -17.8657 H             1 RES     
     263 C            5.3468    53.3692   -18.9368 C             1 RES     
     264 H            6.4066    53.1174   -18.9745 H             1 RES     
     265 H            5.2328    54.4465   -18.8164 H             1 RES     
     266 C            4.6671    52.9245   -20.2452 C             1 RES     
     267 H            3.6072    53.1763   -20.2075 H             1 RES     
     268 H            4.7810    51.8471   -20.3655 H             1 RES     
     269 C            5.3237    53.6461   -21.4367 C             1 RES     
     270 H            6.3836    53.3943   -21.4743 H             1 RES     
     271 H            5.2098    54.7234   -21.3163 H             1 RES     
     272 C            4.6440    53.2013   -22.7450 C             1 RES     
     273 H            3.5842    53.4531   -22.7074 H             1 RES     
     274 H            4.7580    52.1240   -22.8654 H             1 RES     
     275 C            5.3007    53.9229   -23.9365 C             1 RES     
     276 H            6.3606    53.6711   -23.9742 H             1 RES     
     277 H            5.1867    55.0003   -23.8162 H             1 RES     
     278 C            4.6210    53.4782   -25.2449 C             1 RES     
     279 H            3.5612    53.7300   -25.2073 H             1 RES     
     280 H            4.7350    52.4009   -25.3653 H             1 RES     
     281 C            5.2478    54.1670   -26.3822 C             1 RES     
     282 H            4.5423    54.9659   -26.2873 H             1 RES     
     283 H            5.4068    53.9524   -27.4185 H             1 RES     
     284 H            6.1753    54.4543   -25.9311 H             1 RES     
     285 N           43.8178    16.4317     5.0000 N             1 RES     
     286 C           43.8178    17.8982     5.2163 C             1 RES     
     287 H           44.6848    18.3857     4.7226 H             1 RES     
     288 H           43.8906    18.1422     6.3003 H             1 RES     
     289 H           42.8847    18.3603     4.8234 H             1 RES     
     290 C           45.0856    15.8564     5.5091 C             1 RES     
     291 H           45.1222    14.7570     5.3400 H             1 RES     
     292 H           45.1967    16.0386     6.6018 H             1 RES     
     293 H           45.9703    16.3155     5.0194 H             1 RES     
     294 C           42.6962    15.8461     5.7732 C             1 RES     
     295 H           42.7961    16.0641     6.8606 H             1 RES     
     296 H           42.6602    14.7396     5.6540 H             1 RES     
     297 H           41.7178    16.2572     5.4364 H             1 RES     
     298 C           43.6097    16.0958     3.5586 C             1 RES     
     299 H           42.6324    16.4997     3.2097 H             1 RES     
     300 H           43.5693    14.9909     3.4260 H             1 RES     
     301 C           44.6829    16.6242     2.5960 C             1 RES     
     302 H           45.6837    16.1897     2.7918 H             1 RES     
     303 H           44.7263    17.7316     2.5707 H             1 RES     
     304 P           43.6966    17.3837     0.4318 P             1 RES     
     305 O           43.5243    17.0079    -1.1139 O             1 RES     
     306 O           44.5434    16.2429     1.1676 O             1 RES     
     307 O           44.5014    18.7655     0.4849 O             1 RES     
     308 O           42.2261    17.4469     1.0592 O             1 RES     
     309 C           42.7357    18.0859    -1.7631 C             1 RES     
     310 H           43.2649    19.0335    -1.6628 H             1 RES     
     311 H           41.7601    18.1615    -1.2830 H             1 RES     
     312 C           43.2418    16.4215    -3.5797 C             1 RES     
     313 H           44.3056    16.5005    -3.3557 H             1 RES     
     314 H           42.8007    15.6284    -2.9759 H             1 RES     
     315 C           42.5488    17.7582    -3.2561 C             1 RES     
     316 H           41.4850    17.6792    -3.4801 H             1 RES     
     317 C           44.3201    16.8258    -5.4006 C             1 RES     
     318 O           45.0714    17.4002    -4.6142 O             1 RES     
     319 O           43.0634    16.1087    -5.0049 O             1 RES     
     320 C           44.5253    16.7389    -6.8131 C             1 RES     
     321 H           43.6819    17.1929    -7.3334 H             1 RES     
     322 H           44.6050    15.6893    -7.0959 H             1 RES     
     323 C           45.8222    17.4742    -7.1991 C             1 RES     
     324 H           46.6656    17.0202    -6.6788 H             1 RES     
     325 H           45.7425    18.5238    -6.9162 H             1 RES     
     326 C           46.0402    17.3679    -8.7199 C             1 RES     
     327 H           45.1968    17.8218    -9.2402 H             1 RES     
     328 H           46.1199    16.3182    -9.0027 H             1 RES     
     329 C           47.3371    18.1031    -9.1059 C             1 RES     
     330 H           48.1805    17.6491    -8.5856 H             1 RES     
     331 H           47.2574    19.1527    -8.8231 H             1 RES     
     332 C           47.5551    17.9968   -10.6267 C             1 RES     
     333 H           46.7118    18.4508   -11.1470 H             1 RES     
     334 H           47.6349    16.9472   -10.9096 H             1 RES     
     335 C           48.8521    18.7320   -11.0127 C             1 RES     
     336 H           49.6954    18.2780   -10.4924 H             1 RES     
     337 H           48.7723    19.7817   -10.7299 H             1 RES     
     338 C           49.0701    18.6257   -12.5335 C             1 RES     
     339 H           48.2267    19.0797   -13.0538 H             1 RES     
     340 H           49.1498    17.5761   -12.8164 H             1 RES     
     341 C           50.3670    19.3610   -12.9196 C             1 RES     
     342 H           51.2104    18.9070   -12.3993 H             1 RES     
     343 H           50.2873    20.4106   -12.6367 H             1 RES     
     344 C           50.5850    19.2546   -14.4403 C             1 RES     
     345 H           49.7416    19.7086   -14.9606 H             1 RES     
     346 H           50.6647    18.2050   -14.7232 H             1 RES     
     347 C           51.8819    19.9899   -14.8264 C             1 RES     
     348 H           52.7253    19.5359   -14.3061 H             1 RES     
     349 H           51.8022    21.0395   -14.5435 H             1 RES     
     350 C           52.0999    19.8836   -16.3472 C             1 RES     
     351 H           51.2565    20.3376   -16.8675 H             1 RES     
     352 H           52.1796    18.8339   -16.6300 H             1 RES     
     353 C           53.3968    20.6188   -16.7332 C             1 RES     
     354 H           54.2402    20.1648   -16.2129 H             1 RES     
     355 H           53.3171    21.6685   -16.4503 H             1 RES     
     356 C           53.6148    20.5125   -18.2540 C             1 RES     
     357 H           52.7715    20.9665   -18.7743 H             1 RES     
     358 H           53.6946    19.4629   -18.5368 H             1 RES     
     359 C           54.9118    21.2477   -18.6400 C             1 RES     
     360 H           55.7551    20.7938   -18.1197 H             1 RES     
     361 H           54.8320    22.2974   -18.3572 H             1 RES     
     362 C           55.1298    21.1414   -20.1608 C             1 RES     
     363 H           54.2864    21.5954   -20.6811 H             1 RES     
     364 H           55.2095    20.0918   -20.4437 H             1 RES     
     365 C           56.4267    21.8767   -20.5468 C             1 RES     
     366 H           57.2701    21.4227   -20.0265 H             1 RES     
     367 H           56.3470    22.9263   -20.2640 H             1 RES     
     368 C           56.6348    21.7752   -21.9985 C             1 RES     
     369 H           57.1896    20.8715   -21.8558 H             1 RES     
     370 H           57.1092    22.3703   -22.7508 H             1 RES     
     371 H           55.6379    21.5370   -22.3080 H             1 RES     
     372 C           42.6281    18.1917    -5.3250 C             1 RES     
     373 O           41.9707    17.1552    -5.4051 O             1 RES     
     374 O           43.1214    18.7878    -4.0400 O             1 RES     
     375 C           43.0196    19.0003    -6.4375 C             1 RES     
     376 H           44.1068    19.0682    -6.4751 H             1 RES     
     377 H           42.5967    19.9977    -6.3171 H             1 RES     
     378 C           42.4989    18.3769    -7.7459 C             1 RES     
     379 H           41.4117    18.3090    -7.7082 H             1 RES     
     380 H           42.9218    17.3795    -7.8662 H             1 RES     
     381 C           42.9169    19.2585    -8.9374 C             1 RES     
     382 H           44.0041    19.3264    -8.9750 H             1 RES     
     383 H           42.4940    20.2559    -8.8170 H             1 RES     
     384 C           42.3962    18.6350   -10.2457 C             1 RES     
     385 H           41.3090    18.5672   -10.2081 H             1 RES     
     386 H           42.8191    17.6376   -10.3661 H             1 RES     
     387 C           42.8142    19.5166   -11.4372 C             1 RES     
     388 H           43.9014    19.5845   -11.4749 H             1 RES     
     389 H           42.3913    20.5140   -11.3169 H             1 RES     
     390 C           42.2935    18.8932   -12.7456 C             1 RES     
     391 H           41.2063    18.8253   -12.7079 H             1 RES     
     392 H           42.7164    17.8958   -12.8660 H             1 RES     
     393 C           42.7115    19.7748   -13.9371 C             1 RES     
     394 H           43.7987    19.8427   -13.9747 H             1 RES     
     395 H           42.2886    20.7722   -13.8167 H             1 RES     
     396 C           42.1908    19.1513   -15.2454 C             1 RES     
     397 H           41.1036    19.0835   -15.2078 H             1 RES     
     398 H           42.6137    18.1540   -15.3658 H             1 RES     
     399 C           42.6088    20.0330   -16.4369 C             1 RES     
     400 H           43.6960    20.1008   -16.4746 H             1 RES     
     401 H           42.1859    21.0303   -16.3166 H             1 RES     
     402 C           42.0881    19.4095   -17.7453 C             1 RES     
     403 H           41.0009    19.3416   -17.7077 H             1 RES     
     404 H           42.5110    18.4121   -17.8657 H             1 RES     
     405 C           42.5061    20.2911   -18.9368 C             1 RES     
     406 H           43.5933    20.3590   -18.9745 H             1 RES     
     407 H           42.0832    21.2885   -18.8164 H             1 RES     
     408 C           41.9854    19.6677   -20.2452 C             1 RES     
     409 H           40.8982    19.5998   -20.2075 H             1 RES     
     410 H           42.4083    18.6703   -20.3655 H             1 RES     
     411 C           42.4034    20.5493   -21.4367 C             1 RES     
     412 H           43.4906    20.6171   -21.4743 H             1 RES     
     413 H           41.9805    21.5467   -21.3163 H             1 RES     
     414 C           41.8827    19.9258   -22.7450 C             1 RES     
     415 H           40.7955    19.8579   -22.7074 H             1 RES     
     416 H           42.3056    18.9284   -22.8654 H             1 RES     
     417 C           42.3007    20.8074   -23.9365 C             1 RES     
     418 H           43.3879    20.8753   -23.9742 H             1 RES     
     419 H           41.8778    21.8048   -23.8162 H             1 RES     
     420 C           41.7800    20.1840   -25.2449 C             1 RES     
     421 H           40.6928    20.1161   -25.2073 H             1 RES     
     422 H           42.2029    19.1866   -25.3653 H             1 RES     
     423 C           42.1790    21.0255   -26.3822 C             1 RES     
     424 H           41.2714    21.5842   -26.2873 H             1 RES     
     425 H           42.3936    20.8665   -27.4185 H             1 RES     
     426 H           42.9826    21.5705   -25.9311 H             1 RES     
     427 N           43.8178    38.3406     5.0000 N             1 RES     
     428 C           44.0475    39.7890     5.2163 C             1 RES     
     429 H           44.9801    40.1347     4.7226 H             1 RES     
     430 H           44.1576    40.0186     6.3003 H             1 RES     
     431 H           43.1983    40.3915     4.8234 H             1 RES     
     432 C           44.9799    37.5738     5.5091 C             1 RES     
     433 H           44.8438    36.4823     5.3400 H             1 RES     
     434 H           45.1181    37.7364     6.6018 H             1 RES     
     435 H           45.9255    37.8888     5.0194 H             1 RES     
     436 C           42.6183    37.9379     5.7732 C             1 RES     
     437 H           42.7511    38.1375     6.8606 H             1 RES     
     438 H           42.4094    36.8507     5.6540 H             1 RES     
     439 H           41.7164    38.4972     5.4364 H             1 RES     
     440 C           43.5596    38.0415     3.5586 C             1 RES     
     441 H           42.6577    38.5934     3.2097 H             1 RES     
     442 H           43.3467    36.9565     3.4260 H             1 RES     
     443 C           44.7024    38.3952     2.5960 C             1 RES     
     444 H           45.6228    37.8093     2.7918 H             1 RES     
     445 H           44.9187    39.4821     2.5707 H             1 RES     
     446 P           43.8472    39.2999     0.4318 P             1 RES     
     447 O           43.6181    38.9557    -1.1139 O             1 RES     
     448 O           44.5049    38.0405     1.1676 O             1 RES     
     449 O           44.8585    40.5386     0.4849 O             1 RES     
     450 O           42.4047    39.5926     1.0592 O             1 RES     
     451 C           43.0082    40.1439    -1.7631 C             1 RES     
     452 H           43.6792    40.9969    -1.6628 H             1 RES     
     453 H           42.0564    40.3713    -1.2830 H             1 RES     
     454 C           43.2473    38.4207    -3.5797 C             1 RES     
     455 H           44.3104    38.3321    -3.3557 H             1 RES     
     456 H           42.6875    37.7065    -2.9759 H             1 RES     
     457 C           42.7722    39.8495    -3.2561 C             1 RES     
     458 H           41.7092    39.9381    -3.4801 H             1 RES     
     459 C           44.3756    38.6511    -5.4006 C             1 RES     
     460 O           45.2077    39.1008    -4.6142 O             1 RES     
     461 O           43.0221    38.1397    -5.0049 O             1 RES     
     462 C           44.5647    38.5332    -6.8131 C             1 RES     
     463 H           43.8028    39.1137    -7.3334 H             1 RES     
     464 H           44.4790    37.4841    -7.0959 H             1 RES     
     465 C           45.9607    39.0563    -7.1991 C             1 RES     
     466 H           46.7226    38.4758    -6.6788 H             1 RES     
     467 H           46.0464    40.1055    -6.9162 H             1 RES     
     468 C           46.1594    38.9171    -8.7199 C             1 RES     
     469 H           45.3975    39.4976    -9.2402 H             1 RES     
     470 H           46.0738    37.8680    -9.0027 H             1 RES     
     471 C           47.5555    39.4402    -9.1059 C             1 RES     
     472 H           48.3173    38.8597    -8.5856 H             1 RES     
     473 H           47.6411    40.4894    -8.8231 H             1 RES     
     474 C           47.7541    39.3011   -10.6267 C             1 RES     
     475 H           46.9923    39.8815   -11.1470 H             1 RES     
     476 H           47.6685    38.2519   -10.9096 H             1 RES     
     477 C           49.1502    39.8241   -11.0127 C             1 RES     
     478 H           49.9121    39.2436   -10.4924 H             1 RES     
     479 H           49.2358    40.8733   -10.7299 H             1 RES     
     480 C           49.3489    39.6850   -12.5335 C             1 RES     
     481 H           48.5870    40.2655   -13.0538 H             1 RES     
     482 H           49.2632    38.6358   -12.8164 H             1 RES     
     483 C           50.7449    40.2080   -12.9196 C             1 RES     
     484 H           51.5068    39.6276   -12.3993 H             1 RES     
     485 H           50.8306    41.2572   -12.6367 H             1 RES     
     486 C           50.9436    40.0689   -14.4403 C             1 RES     
     487 H           50.1817    40.6494   -14.9606 H             1 RES     
     488 H           50.8580    39.0197   -14.7232 H             1 RES     
     489 C           52.3397    40.5919   -14.8264 C             1 RES     
     490 H           53.1015    40.0115   -14.3061 H             1 RES     
     491 H           52.4253    41.6411   -14.5435 H             1 RES     
     492 C           52.5383    40.4528   -16.3472 C             1 RES     
     493 H           51.7765    41.0333   -16.8675 H             1 RES     
     494 H           52.4527    39.4036   -16.6300 H             1 RES     
     495 C           53.9344    40.9759   -16.7332 C             1 RES     
     496 H           54.6963    40.3954   -16.2129 H             1 RES     
     497 H           54.0200    42.0250   -16.4503 H             1 RES     
     498 C           54.1331    40.8367   -18.2540 C             1 RES     
     499 H           53.3712    41.4172   -18.7743 H             1 RES     
     500 H           54.0474    39.7876   -18.5368 H             1 RES     
     501 C           55.5291    41.3598   -18.6400 C             1 RES     
     502 H           56.2910    40.7793   -18.1197 H             1 RES     
     503 H           55.6148    42.4089   -18.3572 H             1 RES     
     504 C           55.7278    41.2206   -20.1608 C             1 RES     
     505 H           54.9659    41.8011   -20.6811 H             1 RES     
     506 H           55.6421    40.1715   -20.4437 H             1 RES     
     507 C           57.1238    41.7437   -20.5468 C             1 RES     
     508 H           57.8857    41.1632   -20.0265 H             1 RES     
     509 H           57.2095    42.7929   -20.2640 H             1 RES     
     510 C           57.3135    41.6109   -21.9985 C             1 RES     
     511 H           57.7199    40.6314   -21.8558 H             1 RES     
     512 H           57.8752    42.1244   -22.7508 H             1 RES     
     513 H           56.2916    41.5318   -22.3080 H             1 RES     
     514 C           42.9184    40.2652    -5.3250 C             1 RES     
     515 O           42.1068    39.3445    -5.4051 O             1 RES     
     516 O           43.4990    40.7767    -4.0400 O             1 RES     
     517 C           43.4317    41.0026    -6.4375 C             1 RES     
     518 H           44.5161    40.8993    -6.4751 H             1 RES     
     519 H           43.1702    42.0539    -6.3171 H             1 RES     
     520 C           42.8198    40.4683    -7.7459 C             1 RES     
     521 H           41.7354    40.5716    -7.7082 H             1 RES     
     522 H           43.0813    39.4170    -7.8662 H             1 RES     
     523 C           43.3707    41.2736    -8.9374 C             1 RES     
     524 H           44.4551    41.1704    -8.9750 H             1 RES     
     525 H           43.1092    42.3249    -8.8170 H             1 RES     
     526 C           42.7588    40.7394   -10.2457 C             1 RES     
     527 H           41.6744    40.8426   -10.2081 H             1 RES     
     528 H           43.0203    39.6881   -10.3661 H             1 RES     
     529 C           43.3097    41.5447   -11.4372 C             1 RES     
     530 H           44.3941    41.4414   -11.4749 H             1 RES     
     531 H           43.0482    42.5960   -11.3169 H             1 RES     
     532 C           42.6978    41.0104   -12.7456 C             1 RES     
     533 H           41.6134    41.1137   -12.7079 H             1 RES     
     534 H           42.9593    39.9591   -12.8660 H             1 RES     
     535 C           43.2487    41.8157   -13.9371 C             1 RES     
     536 H           44.3331    41.7125   -13.9747 H             1 RES     
     537 H           42.9872    42.8670   -13.8167 H             1 RES     
     538 C           42.6368    41.2815   -15.2454 C             1 RES     
     539 H           41.5524    41.3847   -15.2078 H             1 RES     
     540 H           42.8983    40.2302   -15.3658 H             1 RES     
     541 C           43.1877    42.0868   -16.4369 C             1 RES     
     542 H           44.2722    41.9835   -16.4746 H             1 RES     
     543 H           42.9263    43.1381   -16.3166 H             1 RES     
     544 C           42.5758    41.5525   -17.7453 C             1 RES     
     545 H           41.4914    41.6558   -17.7077 H             1 RES     
     546 H           42.8373    40.5012   -17.8657 H             1 RES     
     547 C           43.1267    42.3578   -18.9368 C             1 RES     
     548 H           44.2112    42.2546   -18.9745 H             1 RES     
     549 H           42.8653    43.4091   -18.8164 H             1 RES     
     550 C           42.5148    41.8236   -20.2452 C             1 RES     
     551 H           41.4304    41.9268   -20.2075 H             1 RES     
     552 H           42.7763    40.7723   -20.3655 H             1 RES     
     553 C           43.0657    42.6289   -21.4367 C             1 RES     
     554 H           44.1502    42.5256   -21.4743 H             1 RES     
     555 H           42.8043    43.6802   -21.3163 H             1 RES     
     556 C           42.4538    42.0947   -22.7450 C             1 RES     
     557 H           41.3694    42.1979   -22.7074 H             1 RES     
     558 H           42.7153    41.0433   -22.8654 H             1 RES     
     559 C           43.0047    42.8999   -23.9365 C             1 RES     
     560 H           44.0892    42.7967   -23.9742 H             1 RES     
     561 H           42.7433    43.9512   -23.8162 H             1 RES     
     562 C           42.3928    42.3657   -25.2449 C             1 RES     
     563 H           41.3084    42.4689   -25.2073 H             1 RES     
     564 H           42.6543    41.3144   -25.3653 H             1 RES     
     565 C           42.9187    43.1344   -26.3822 C             1 RES     
     566 H           42.1098    43.8283   -26.2873 H             1 RES     
     567 H           43.1057    42.9437   -27.4185 H             1 RES     
     568 H           43.7977    43.5468   -25.9311 H             1 RES     
     569 N           43.8178    43.8178     5.0000 N             1 RES     
     570 C           43.8301    45.2842     5.2163 C             1 RES     
     571 H           44.7011    45.7645     4.7226 H             1 RES     
     572 H           43.9049    45.5277     6.3003 H             1 RES     
     573 H           42.9009    45.7542     4.8234 H             1 RES     
     574 C           45.0807    43.2319     5.5091 C             1 RES     
     575 H           45.1081    42.1322     5.3400 H             1 RES     
     576 H           45.1934    43.4132     6.6018 H             1 RES     
     577 H           45.9692    43.6836     5.0194 H             1 RES     
     578 C           42.6913    43.2417     5.7732 C             1 RES     
     579 H           42.7931    43.4588     6.8606 H             1 RES     
     580 H           42.6460    42.1355     5.6540 H             1 RES     
     581 H           41.7164    43.6610     5.4364 H             1 RES     
     582 C           43.6068    43.4837     3.5586 C             1 RES     
     583 H           42.6330    43.8958     3.2097 H             1 RES     
     584 H           43.5572    42.3792     3.4260 H             1 RES     
     585 C           44.6845    44.0030     2.5960 C             1 RES     
     586 H           45.6816    43.5602     2.7918 H             1 RES     
     587 H           44.7372    45.1100     2.5707 H             1 RES     
     588 P           43.7046    44.7708     0.4318 P             1 RES     
     589 O           43.5291    44.3965    -1.1139 O             1 RES     
     590 O           44.5418    43.6229     1.1676 O             1 RES     
     591 O           44.5210    46.1458     0.4849 O             1 RES     
     592 O           42.2346    44.8464     1.0592 O             1 RES     
     593 C           42.7496    45.4811    -1.7631 C             1 RES     
     594 H           43.2868    46.4242    -1.6628 H             1 RES     
     595 H           41.7746    45.5648    -1.2830 H             1 RES     
     596 C           43.2417    43.8125    -3.5797 C             1 RES     
     597 H           44.3062    43.8825    -3.3557 H             1 RES     
     598 H           42.7940    43.0231    -2.9759 H             1 RES     
     599 C           42.5600    45.1549    -3.2561 C             1 RES     
     600 H           41.4956    45.0849    -3.4801 H             1 RES     
     601 C           44.3234    44.2077    -5.4006 C             1 RES     
     602 O           45.0795    44.7758    -4.6142 O             1 RES     
     603 O           43.0607    43.5011    -5.0049 O             1 RES     
     604 C           44.5278    44.1191    -6.8131 C             1 RES     
     605 H           43.6883    44.5802    -7.3334 H             1 RES     
     606 H           44.5988    43.0688    -7.0959 H             1 RES     
     607 C           45.8309    44.8434    -7.1991 C             1 RES     
     608 H           46.6704    44.3824    -6.6788 H             1 RES     
     609 H           45.7600    45.8937    -6.9162 H             1 RES     
     610 C           46.0480    44.7353    -8.7199 C             1 RES     
     611 H           45.2085    45.1964    -9.2402 H             1 RES     
     612 H           46.1189    43.6850    -9.0027 H             1 RES     
     613 C           47.3510    45.4597    -9.1059 C             1 RES     
     614 H           48.1906    44.9986    -8.5856 H             1 RES     
     615 H           47.2801    46.5099    -8.8231 H             1 RES     
     616 C           47.5681    45.3515   -10.6267 C             1 RES     
     617 H           46.7286    45.8126   -11.1470 H             1 RES     
     618 H           47.6391    44.3013   -10.9096 H             1 RES     
     619 C           48.8712    46.0759   -11.0127 C             1 RES     
     620 H           49.7107    45.6148   -10.4924 H             1 RES     
     621 H           48.8002    47.1261   -10.7299 H             1 RES     
     622 C           49.0883    45.9677   -12.5335 C             1 RES     
     623 H           48.2487    46.4288   -13.0538 H             1 RES     
     624 H           49.1592    44.9175   -12.8164 H             1 RES     
     625 C           50.3913    46.6921   -12.9196 C             1 RES     
     626 H           51.2309    46.2310   -12.3993 H             1 RES     
     627 H           50.3204    47.7423   -12.6367 H             1 RES     
     628 C           50.6084    46.5839   -14.4403 C             1 RES     
     629 H           49.7689    47.0450   -14.9606 H             1 RES     
     630 H           50.6794    45.5337   -14.7232 H             1 RES     
     631 C           51.9115    47.3083   -14.8264 C             1 RES     
     632 H           52.7510    46.8472   -14.3061 H             1 RES     
     633 H           51.8405    48.3585   -14.5435 H             1 RES     
     634 C           52.1286    47.2001   -16.3472 C             1 RES     
     635 H           51.2890    47.6612   -16.8675 H             1 RES     
     636 H           52.1995    46.1499   -16.6300 H             1 RES     
     637 C           53.4316    47.9245   -16.7332 C             1 RES     
     638 H           54.2711    47.4634   -16.2129 H             1 RES     
     639 H           53.3607    48.9747   -16.4503 H             1 RES     
     640 C           53.6487    47.8163   -18.2540 C             1 RES     
     641 H           52.8092    48.2774   -18.7743 H             1 RES     
     642 H           53.7196    46.7661   -18.5368 H             1 RES     
     643 C           54.9518    48.5407   -18.6400 C             1 RES     
     644 H           55.7913    48.0796   -18.1197 H             1 RES     
     645 H           54.8808    49.5909   -18.3572 H             1 RES     
     646 C           55.1689    48.4325   -20.1608 C             1 RES     
     647 H           54.3293    48.8936   -20.6811 H             1 RES     
     648 H           55.2398    47.3823   -20.4437 H             1 RES     
     649 C           56.4719    49.1569   -20.5468 C             1 RES     
     650 H           57.3114    48.6958   -20.0265 H             1 RES     
     651 H           56.4010    50.2072   -20.2640 H             1 RES     
     652 C           56.6791    49.0537   -21.9985 C             1 RES     
     653 H           57.2263    48.1453   -21.8558 H             1 RES     
     654 H           57.1585    49.6448   -22.7508 H             1 RES     
     655 H           55.6803    48.8239   -22.3080 H             1 RES     
     656 C           42.6429    45.5878    -5.3250 C             1 RES     
     657 O           41.9769    44.5568    -5.4051 O             1 RES     
     658 O           43.1412    46.1797    -4.0400 O             1 RES     
     659 C           43.0411    46.3931    -6.4375 C             1 RES     
     660 H           44.1289    46.4518    -6.4751 H             1 RES     
     661 H           42.6266    47.3940    -6.3171 H             1 RES     
     662 C           42.5152    45.7740    -7.7459 C             1 RES     
     663 H           41.4275    45.7152    -7.7082 H             1 RES     
     664 H           42.9297    44.7731    -7.8662 H             1 RES     
     665 C           42.9406    46.6521    -8.9374 C             1 RES     
     666 H           44.0284    46.7108    -8.9750 H             1 RES     
     667 H           42.5261    47.6530    -8.8170 H             1 RES     
     668 C           42.4147    46.0330   -10.2457 C             1 RES     
     669 H           41.3270    45.9742   -10.2081 H             1 RES     
     670 H           42.8292    45.0321   -10.3661 H             1 RES     
     671 C           42.8401    46.9111   -11.4372 C             1 RES     
     672 H           43.9278    46.9698   -11.4749 H             1 RES     
     673 H           42.4256    47.9120   -11.3169 H             1 RES     
     674 C           42.3142    46.2920   -12.7456 C             1 RES     
     675 H           41.2264    46.2333   -12.7079 H             1 RES     
     676 H           42.7287    45.2911   -12.8660 H             1 RES     
     677 C           42.7395    47.1701   -13.9371 C             1 RES     
     678 H           43.8273    47.2288   -13.9747 H             1 RES     
     679 H           42.3251    48.1710   -13.8167 H             1 RES     
     680 C           42.2137    46.5510   -15.2454 C             1 RES     
     681 H           41.1259    46.4923   -15.2078 H             1 RES     
     682 H           42.6282    45.5501   -15.3658 H             1 RES     
     683 C           42.6390    47.4291   -16.4369 C             1 RES     
     684 H           43.7268    47.4879   -16.4746 H             1 RES     
     685 H           42.2245    48.4300   -16.3166 H             1 RES     
     686 C           42.1132    46.8100   -17.7453 C             1 RES     
     687 H           41.0254    46.7513   -17.7077 H             1 RES     
     688 H           42.5277    45.8091   -17.8657 H             1 RES     
     689 C           42.5385    47.6881   -18.9368 C             1 RES     
     690 H           43.6263    47.7469   -18.9745 H             1 RES     
     691 H           42.1240    48.6890   -18.8164 H             1 RES     
     692 C           42.0126    47.0690   -20.2452 C             1 RES     
     693 H           40.9249    47.0103   -20.2075 H             1 RES     
     694 H           42.4271    46.0681   -20.3655 H             1 RES     
     695 C           42.4380    47.9471   -21.4367 C             1 RES     
     696 H           43.5257    48.0059   -21.4743 H             1 RES     
     697 H           42.0235    48.9480   -21.3163 H             1 RES     
     698 C           41.9121    47.3280   -22.7450 C             1 RES     
     699 H           40.8243    47.2693   -22.7074 H             1 RES     
     700 H           42.3266    46.3271   -22.8654 H             1 RES     
     701 C           42.3375    48.2061   -23.9365 C             1 RES     
     702 H           43.4252    48.2649   -23.9742 H             1 RES     
     703 H           41.9230    49.2070   -23.8162 H             1 RES     
     704 C           41.8116    47.5871   -25.2449 C             1 RES     
     705 H           40.7238    47.5283   -25.2073 H             1 RES     
     706 H           42.2261    46.5862   -25.3653 H             1 RES     
     707 C           42.2176    48.4252   -26.3822 C             1 RES     
     708 H           41.3147    48.9915   -26.2873 H             1 RES     
     709 H           42.4308    48.2644   -27.4185 H             1 RES     
     710 H           43.0257    48.9634   -25.9311 H             1 RES     
     711 N           10.9545    43.8178     5.0000 N             1 RES     
     712 C           11.1118    45.2758     5.2163 C             1 RES     
     713 H           12.0260    45.6676     4.7226 H             1 RES     
     714 H           11.2103    45.5107     6.3003 H             1 RES     
     715 H           10.2337    45.8354     4.8234 H             1 RES     
     716 C           12.1532    43.1098     5.5091 C             1 RES     
     717 H           12.0717    42.0129     5.3400 H             1 RES     
     718 H           12.2832    43.2791     6.6018 H             1 RES     
     719 H           13.0820    43.4714     5.0194 H             1 RES     
     720 C            9.7765    43.3559     5.7732 C             1 RES     
     721 H            9.8992    43.5619     6.8606 H             1 RES     
     722 H            9.6220    42.2597     5.6540 H             1 RES     
     723 H            8.8479    43.8697     5.4364 H             1 RES     
     724 C           10.7115    43.5062     3.5586 C             1 RES     
     725 H            9.7832    44.0126     3.2097 H             1 RES     
     726 H           10.5528    42.4120     3.4260 H             1 RES     
     727 C           11.8352    43.9164     2.5960 C             1 RES     
     728 H           12.7836    43.3770     2.7918 H             1 RES     
     729 H           11.9972    45.0127     2.5707 H             1 RES     
     730 P           10.9361    44.7774     0.4318 P             1 RES     
     731 O           10.7244    44.4222    -1.1139 O             1 RES     
     732 O           11.6556    43.5523     1.1676 O             1 RES     
     733 O           11.8845    46.0648     0.4849 O             1 RES     
     734 O            9.4808    44.9980     1.0592 O             1 RES     
     735 C           10.0561    45.5786    -1.7631 C             1 RES     
     736 H           10.6839    46.4640    -1.6628 H             1 RES     
     737 H            9.0941    45.7584    -1.2830 H             1 RES     
     738 C           10.3807    43.8695    -3.5797 C             1 RES     
     739 H           11.4468    43.8339    -3.3557 H             1 RES     
     740 H            9.8571    43.1283    -2.9759 H             1 RES     
     741 C            9.8351    45.2728    -3.2561 C             1 RES     
     742 H            8.7690    45.3084    -3.4801 H             1 RES     
     743 C           11.4961    44.1557    -5.4006 C             1 RES     
     744 O           12.3048    44.6463    -4.6142 O             1 RES     
     745 O           10.1697    43.5776    -5.0049 O             1 RES     
     746 C           11.6908    44.0474    -6.8131 C             1 RES     
     747 H           10.9010    44.5892    -7.3334 H             1 RES     
     748 H           11.6575    42.9953    -7.0959 H             1 RES     
     749 C           13.0591    44.6393    -7.1991 C             1 RES     
     750 H           13.8489    44.0974    -6.6788 H             1 RES     
     751 H           13.0925    45.6914    -6.9162 H             1 RES     
     752 C           13.2645    44.5102    -8.7199 C             1 RES     
     753 H           12.4747    45.0520    -9.2402 H             1 RES     
     754 H           13.2311    43.4580    -9.0027 H             1 RES     
     755 C           14.6328    45.1020    -9.1059 C             1 RES     
     756 H           15.4226    44.5602    -8.5856 H             1 RES     
     757 H           14.6661    46.1542    -8.8231 H             1 RES     
     758 C           14.8381    44.9730   -10.6267 C             1 RES     
     759 H           14.0483    45.5148   -11.1470 H             1 RES     
     760 H           14.8048    43.9208   -10.9096 H             1 RES     
     761 C           16.2064    45.5648   -11.0127 C             1 RES     
     762 H           16.9962    45.0230   -10.4924 H             1 RES     
     763 H           16.2398    46.6170   -10.7299 H             1 RES     
     764 C           16.4118    45.4357   -12.5335 C             1 RES     
     765 H           15.6220    45.9776   -13.0538 H             1 RES     
     766 H           16.3784    44.3836   -12.8164 H             1 RES     
     767 C           17.7801    46.0276   -12.9196 C             1 RES     
     768 H           18.5699    45.4858   -12.3993 H             1 RES     
     769 H           17.8134    47.0797   -12.6367 H             1 RES     
     770 C           17.9854    45.8985   -14.4403 C             1 RES     
     771 H           17.1956    46.4404   -14.9606 H             1 RES     
     772 H           17.9521    44.8464   -14.7232 H             1 RES     
     773 C           19.3537    46.4904   -14.8264 C             1 RES     
     774 H           20.1435    45.9486   -14.3061 H             1 RES     
     775 H           19.3871    47.5425   -14.5435 H             1 RES     
     776 C           19.5591    46.3613   -16.3472 C             1 RES     
     777 H           18.7693    46.9032   -16.8675 H             1 RES     
     778 H           19.5257    45.3092   -16.6300 H             1 RES     
     779 C           20.9274    46.9532   -16.7332 C             1 RES     
     780 H           21.7172    46.4113   -16.2129 H             1 RES     
     781 H           20.9607    48.0053   -16.4503 H             1 RES     
     782 C           21.1327    46.8241   -18.2540 C             1 RES     
     783 H           20.3429    47.3660   -18.7743 H             1 RES     
     784 H           21.0994    45.7720   -18.5368 H             1 RES     
     785 C           22.5010    47.4160   -18.6400 C             1 RES     
     786 H           23.2908    46.8741   -18.1197 H             1 RES     
     787 H           22.5344    48.4681   -18.3572 H             1 RES     
     788 C           22.7064    47.2869   -20.1608 C             1 RES     
     789 H           21.9166    47.8287   -20.6811 H             1 RES     
     790 H           22.6730    46.2348   -20.4437 H             1 RES     
     791 C           24.0747    47.8788   -20.5468 C             1 RES     
     792 H           24.8645    47.3369   -20.0265 H             1 RES     
     793 H           24.1080    48.9309   -20.2640 H             1 RES     
     794 C           24.2707    47.7555   -21.9985 C             1 RES     
     795 H           24.7254    46.7975   -21.8558 H             1 RES     
     796 H           24.8062    48.2964   -22.7508 H             1 RES     
     797 H           23.2540    47.6257   -22.3080 H             1 RES     
     798 C            9.9604    45.6953    -5.3250 C             1 RES     
     799 O            9.1956    44.7353    -5.4051 O             1 RES     
     800 O           10.5148    46.2350    -4.0400 O             1 RES     
     801 C           10.4364    46.4573    -6.4375 C             1 RES     
     802 H           11.5246    46.4081    -6.4751 H             1 RES     
     803 H           10.1229    47.4943    -6.3171 H             1 RES     
     804 C            9.8518    45.8933    -7.7459 C             1 RES     
     805 H            8.7636    45.9424    -7.7082 H             1 RES     
     806 H           10.1653    44.8563    -7.8662 H             1 RES     
     807 C           10.3620    46.7250    -8.9374 C             1 RES     
     808 H           11.4502    46.6758    -8.9750 H             1 RES     
     809 H           10.0485    47.7619    -8.8170 H             1 RES     
     810 C            9.7774    46.1610   -10.2457 C             1 RES     
     811 H            8.6892    46.2101   -10.2081 H             1 RES     
     812 H           10.0909    45.1240   -10.3661 H             1 RES     
     813 C           10.2875    46.9926   -11.4372 C             1 RES     
     814 H           11.3758    46.9435   -11.4749 H             1 RES     
     815 H            9.9741    48.0296   -11.3169 H             1 RES     
     816 C            9.7030    46.4286   -12.7456 C             1 RES     
     817 H            8.6148    46.4778   -12.7079 H             1 RES     
     818 H           10.0164    45.3916   -12.8660 H             1 RES     
     819 C           10.2131    47.2603   -13.9371 C             1 RES     
     820 H           11.3014    47.2112   -13.9747 H             1 RES     
     821 H            9.8997    48.2973   -13.8167 H             1 RES     
     822 C            9.6286    46.6963   -15.2454 C             1 RES     
     823 H            8.5404    46.7455   -15.2078 H             1 RES     
     824 H            9.9420    45.6593   -15.3658 H             1 RES     
     825 C           10.1387    47.5280   -16.4369 C             1 RES     
     826 H           11.2270    47.4789   -16.4746 H             1 RES     
     827 H            9.8253    48.5650   -16.3166 H             1 RES     
     828 C            9.5542    46.9640   -17.7453 C             1 RES     
     829 H            8.4660    47.0131   -17.7077 H             1 RES     
     830 H            9.8676    45.9270   -17.8657 H             1 RES     
     831 C           10.0643    47.7957   -18.9368 C             1 RES     
     832 H           11.1526    47.7465   -18.9745 H             1 RES     
     833 H            9.7509    48.8327   -18.8164 H             1 RES     
     834 C            9.4798    47.2317   -20.2452 C             1 RES     
     835 H            8.3916    47.2808   -20.2075 H             1 RES     
     836 H            9.7932    46.1947   -20.3655 H             1 RES     
     837 C            9.9899    48.0634   -21.4367 C             1 RES     
     838 H           11.0782    48.0142   -21.4743 H             1 RES     
     839 H            9.6765    49.1004   -21.3163 H             1 RES     
     840 C            9.4054    47.4994   -22.7450 C             1 RES     
     841 H            8.3171    47.5485   -22.7074 H             1 RES     
     842 H            9.7188    46.4624   -22.8654 H             1 RES     
     843 C            9.9155    48.3310   -23.9365 C             1 RES     
     844 H           11.0038    48.2819   -23.9742 H             1 RES     
     845 H            9.6021    49.3680   -23.8162 H             1 RES     
     846 C            9.3310    47.7670   -25.2449 C             1 RES     
     847 H            8.2427    47.8162   -25.2073 H             1 RES     
     848 H            9.6444    46.7300   -25.3653 H             1 RES     
     849 C            9.8179    48.5609   -26.3822 C             1 RES     
     850 H            8.9755    49.2137   -26.2873 H             1 RES     
     851 H           10.0142    48.3798   -27.4185 H             1 RES     
     852 H           10.6753    49.0166   -25.9311 H             1 RES     
     853 N            0.0000    43.8178     5.0000 N             1 RES     
     854 C           -0.2494    45.2629     5.2163 C             1 RES     
     855 H            0.5220    45.8909     4.7226 H             1 RES     
     856 H           -0.2192    45.5158     6.3003 H             1 RES     
     857 H           -1.2475    45.5596     4.8234 H             1 RES     
     858 C            1.3472    43.4665     5.5091 C             1 RES     
     859 H            1.5702    42.3894     5.3400 H             1 RES     
     860 H            1.4257    43.6650     6.6018 H             1 RES     
     861 H            2.1409    44.0695     5.0194 H             1 RES     
     862 C           -1.0057    43.0500     5.7732 C             1 RES     
     863 H           -0.9443    43.2818     6.8606 H             1 RES     
     864 H           -0.8530    41.9535     5.6540 H             1 RES     
     865 H           -2.0397    43.2887     5.4364 H             1 RES     
     866 C           -0.1480    43.4514     3.5586 C             1 RES     
     867 H           -1.1797    43.6832     3.2097 H             1 RES     
     868 H            0.0001    42.3558     3.4260 H             1 RES     
     869 C            0.8198    44.1546     2.5960 C             1 RES     
     870 H            1.8799    43.8967     2.7918 H             1 RES     
     871 H            0.6742    45.2533     2.5707 H             1 RES     
     872 P           -0.2814    44.7354     0.4318 P             1 RES     
     873 O           -0.3873    44.3357    -1.1139 O             1 RES     
     874 O            0.7471    43.7552     1.1676 O             1 RES     
     875 O            0.2767    46.2339     0.4849 O             1 RES     
     876 O           -1.7412    44.5475     1.0592 O             1 RES     
     877 C           -1.3477    45.2639    -1.7631 C             1 RES     
     878 H           -0.9874    46.2877    -1.6628 H             1 RES     
     879 H           -2.3220    45.1724    -1.2830 H             1 RES     
     880 C           -0.5659    43.7098    -3.5797 C             1 RES     
     881 H            0.4690    43.9686    -3.3557 H             1 RES     
     882 H           -0.8656    42.8532    -2.9759 H             1 RES     
     883 C           -1.4761    44.9092    -3.2561 C             1 RES     
     884 H           -2.5110    44.6504    -3.4801 H             1 RES     
     885 C            0.4279    44.2916    -5.4006 C             1 RES     
     886 O            1.0706    44.9854    -4.6142 O             1 RES     
     887 O           -0.6885    43.3712    -5.0049 O             1 RES     
     888 C            0.6449    44.2409    -6.8131 C             1 RES     
     889 H           -0.2634    44.5448    -7.3334 H             1 RES     
     890 H            0.9020    43.2201    -7.0959 H             1 RES     
     891 C            1.7979    45.1860    -7.1991 C             1 RES     
     892 H            2.7062    44.8821    -6.6788 H             1 RES     
     893 H            1.5408    46.2068    -6.9162 H             1 RES     
     894 C            2.0308    45.1183    -8.7199 C             1 RES     
     895 H            1.1225    45.4223    -9.2402 H             1 RES     
     896 H            2.2879    44.0976    -9.0027 H             1 RES     
     897 C            3.1838    46.0635    -9.1059 C             1 RES     
     898 H            4.0921    45.7595    -8.5856 H             1 RES     
     899 H            2.9267    47.0842    -8.8231 H             1 RES     
     900 C            3.4167    45.9958   -10.6267 C             1 RES     
     901 H            2.5084    46.2997   -11.1470 H             1 RES     
     902 H            3.6738    44.9750   -10.9096 H             1 RES     
     903 C            4.5696    46.9409   -11.0127 C             1 RES     
     904 H            5.4780    46.6370   -10.4924 H             1 RES     
     905 H            4.3126    47.9617   -10.7299 H             1 RES     
     906 C            4.8026    46.8732   -12.5335 C             1 RES     
     907 H            3.8943    47.1771   -13.0538 H             1 RES     
     908 H            5.0597    45.8524   -12.8164 H             1 RES     
     909 C            5.9555    47.8183   -12.9196 C             1 RES     
     910 H            6.8638    47.5144   -12.3993 H             1 RES     
     911 H            5.6984    48.8391   -12.6367 H             1 RES     
     912 C            6.1884    47.7506   -14.4403 C             1 RES     
     913 H            5.2801    48.0546   -14.9606 H             1 RES     
     914 H            6.4455    46.7299   -14.7232 H             1 RES     
     915 C            7.3414    48.6958   -14.8264 C             1 RES     
     916 H            8.2497    48.3918   -14.3061 H             1 RES     
     917 H            7.0843    49.7165   -14.5435 H             1 RES     
     918 C            7.5743    48.6281   -16.3472 C             1 RES     
     919 H            6.6660    48.9320   -16.8675 H             1 RES     
     920 H            7.8314    47.6073   -16.6300 H             1 RES     
     921 C            8.7273    49.5732   -16.7332 C             1 RES     
     922 H            9.6356    49.2693   -16.2129 H             1 RES     
     923 H            8.4702    50.5940   -16.4503 H             1 RES     
     924 C            8.9602    49.5055   -18.2540 C             1 RES     
     925 H            8.0519    49.8094   -18.7743 H             1 RES     
     926 H            9.2173    48.4847   -18.5368 H             1 RES     
     927 C           10.1132    50.4506   -18.6400 C             1 RES     
     928 H           11.0215    50.1467   -18.1197 H             1 RES     
     929 H            9.8561    51.4714   -18.3572 H             1 RES     
     930 C           10.3461    50.3829   -20.1608 C             1 RES     
     931 H            9.4378    50.6869   -20.6811 H             1 RES     
     932 H           10.6032    49.3622   -20.4437 H             1 RES     
     933 C           11.4990    51.3281   -20.5468 C             1 RES     
     934 H           12.4073    51.0241   -20.0265 H             1 RES     
     935 H           11.2419    52.3488   -20.2640 H             1 RES     
     936 C           11.7214    51.2635   -21.9985 C             1 RES     
     937 H           12.4218    50.4673   -21.8558 H             1 RES     
     938 H           12.0876    51.9306   -22.7508 H             1 RES     
     939 H           10.7795    50.8592   -22.3080 H             1 RES     
     940 C           -1.4718    45.3499    -5.3250 C             1 RES     
     941 O           -1.9432    44.2166    -5.4051 O             1 RES     
     942 O           -1.0870    46.0211    -4.0400 O             1 RES     
     943 C           -1.2235    46.2133    -6.4375 C             1 RES     
     944 H           -0.1637    46.4651    -6.4751 H             1 RES     
     945 H           -1.8099    47.1242    -6.3171 H             1 RES     
     946 C           -1.6305    45.5103    -7.7459 C             1 RES     
     947 H           -2.6904    45.2585    -7.7082 H             1 RES     
     948 H           -1.0442    44.5994    -7.8662 H             1 RES     
     949 C           -1.3686    46.4502    -8.9374 C             1 RES     
     950 H           -0.3088    46.7020    -8.9750 H             1 RES     
     951 H           -1.9550    47.3611    -8.8170 H             1 RES     
     952 C           -1.7757    45.7473   -10.2457 C             1 RES     
     953 H           -2.8355    45.4955   -10.2081 H             1 RES     
     954 H           -1.1893    44.8363   -10.3661 H             1 RES     
     955 C           -1.5137    46.6871   -11.4372 C             1 RES     
     956 H           -0.4539    46.9389   -11.4749 H             1 RES     
     957 H           -2.1001    47.5980   -11.3169 H             1 RES     
     958 C           -1.9208    45.9842   -12.7456 C             1 RES     
     959 H           -2.9806    45.7324   -12.7079 H             1 RES     
     960 H           -1.3344    45.0733   -12.8660 H             1 RES     
     961 C           -1.6588    46.9240   -13.9371 C             1 RES     
     962 H           -0.5990    47.1759   -13.9747 H             1 RES     
     963 H           -2.2452    47.8350   -13.8167 H             1 RES     
     964 C           -2.0659    46.2211   -15.2454 C             1 RES     
     965 H           -3.1257    45.9693   -15.2078 H             1 RES     
     966 H           -1.4795    45.3102   -15.3658 H             1 RES     
     967 C           -1.8039    47.1610   -16.4369 C             1 RES     
     968 H           -0.7441    47.4128   -16.4746 H             1 RES     
     969 H           -2.3903    48.0719   -16.3166 H             1 RES     
     970 C           -2.2110    46.4580   -17.7453 C             1 RES     
     971 H           -3.2708    46.2062   -17.7077 H             1 RES     
     972 H           -1.6246    45.5471   -17.8657 H             1 RES     
     973 C           -1.9490    47.3979   -18.9368 C             1 RES     
     974 H           -0.8892    47.6497   -18.9745 H             1 RES     
     975 H           -2.5354    48.3088   -18.8164 H             1 RES     
     976 C           -2.3561    46.6950   -20.2452 C             1 RES     
     977 H           -3.4159    46.4432   -20.2075 H             1 RES     
     978 H           -1.7697    45.7840   -20.3655 H             1 RES     
     979 C           -2.0941    47.6348   -21.4367 C             1 RES     
     980 H           -1.0343    47.8866   -21.4743 H             1 RES     
     981 H           -2.6805    48.5458   -21.3163 H             1 RES     
     982 C           -2.5012    46.9319   -22.7450 C             1 RES     
     983 H           -3.5610    46.6801   -22.7074 H             1 RES     
     984 H           -1.9148    46.0210   -22.8654 H             1 RES     
     985 C           -2.2392    47.8718   -23.9365 C             1 RES     
     986 H           -1.1794    48.1236   -23.9742 H             1 RES     
     987 H           -2.8256    48.7827   -23.8162 H             1 RES     
     988 C           -2.6463    47.1688   -25.2449 C             1 RES     
     989 H           -3.7061    46.9170   -25.2073 H             1 RES     
     990 H           -2.0599    46.2579   -25.3653 H             1 RES     
     991 C           -2.3963    48.0660   -26.3822 C             1 RES     
     992 H           -3.3857    48.4621   -26.2873 H             1 RES     
     993 H           -2.1578    47.9458   -27.4185 H             1 RES     
     994 H           -1.6971    48.7397   -25.9311 H             1 RES     
     995 N           38.3406    32.8634     5.0000 N             1 RES     
     996 C           38.6638    34.2938     5.2163 C             1 RES     
     997 H           39.6170    34.5782     4.7226 H             1 RES     
     998 H           38.7886    34.5158     6.3003 H             1 RES     
     999 H           37.8556    34.9502     4.8234 H             1 RES     
    1000 C           39.4504    32.0227     5.5091 C             1 RES     
    1001 H           39.2437    30.9423     5.3400 H             1 RES     
    1002 H           39.5989    32.1760     6.6018 H             1 RES     
    1003 H           40.4145    32.2756     5.0194 H             1 RES     
    1004 C           37.1175    32.5394     5.7732 C             1 RES     
    1005 H           37.2630    32.7300     6.8606 H             1 RES     
    1006 H           36.8384    31.4681     5.6540 H             1 RES     
    1007 H           36.2538    33.1561     5.4364 H             1 RES     
    1008 C           38.0635    32.5816     3.5586 C             1 RES     
    1009 H           37.1993    33.1910     3.2097 H             1 RES     
    1010 H           37.7805    31.5128     3.4260 H             1 RES     
    1011 C           39.2269    32.8604     2.5960 C             1 RES     
    1012 H           40.1072    32.2160     2.7918 H             1 RES     
    1013 H           39.5133    33.9310     2.5707 H             1 RES     
    1014 P           38.4322    33.8187     0.4318 P             1 RES     
    1015 O           38.1813    33.4902    -1.1139 O             1 RES     
    1016 O           39.0067    32.5193     1.1676 O             1 RES     
    1017 O           39.5219    34.9891     0.4849 O             1 RES     
    1018 O           37.0118    34.2045     1.0592 O             1 RES     
    1019 C           37.6498    34.7154    -1.7631 C             1 RES     
    1020 H           38.3749    35.5231    -1.6628 H             1 RES     
    1021 H           36.7148    35.0042    -1.2830 H             1 RES     
    1022 C           37.7765    32.9804    -3.5797 C             1 RES     
    1023 H           38.8315    32.8229    -3.3557 H             1 RES     
    1024 H           37.1714    32.3040    -2.9759 H             1 RES     
    1025 C           37.3953    34.4370    -3.2561 C             1 RES     
    1026 H           36.3402    34.5945    -3.4801 H             1 RES     
    1027 C           38.9174    33.1370    -5.4006 C             1 RES     
    1028 O           39.7769    33.5317    -4.6142 O             1 RES     
    1029 O           37.5335    32.7146    -5.0049 O             1 RES     
    1030 C           39.0984    33.0071    -6.8131 C             1 RES     
    1031 H           38.3759    33.6358    -7.3334 H             1 RES     
    1032 H           38.9448    31.9657    -7.0959 H             1 RES     
    1033 C           40.5255    33.4383    -7.1991 C             1 RES     
    1034 H           41.2480    32.8096    -6.6788 H             1 RES     
    1035 H           40.6791    34.4797    -6.9162 H             1 RES     
    1036 C           40.7147    33.2866    -8.7199 C             1 RES     
    1037 H           39.9922    33.9153    -9.2402 H             1 RES     
    1038 H           40.5611    32.2452    -9.0027 H             1 RES     
    1039 C           42.1418    33.7178    -9.1059 C             1 RES     
    1040 H           42.8643    33.0891    -8.5856 H             1 RES     
    1041 H           42.2954    34.7592    -8.8231 H             1 RES     
    1042 C           42.3310    33.5661   -10.6267 C             1 RES     
    1043 H           41.6085    34.1948   -11.1470 H             1 RES     
    1044 H           42.1774    32.5247   -10.9096 H             1 RES     
    1045 C           43.7581    33.9973   -11.0127 C             1 RES     
    1046 H           44.4806    33.3686   -10.4924 H             1 RES     
    1047 H           43.9117    35.0387   -10.7299 H             1 RES     
    1048 C           43.9473    33.8456   -12.5335 C             1 RES     
    1049 H           43.2248    34.4743   -13.0538 H             1 RES     
    1050 H           43.7937    32.8042   -12.8164 H             1 RES     
    1051 C           45.3744    34.2768   -12.9196 C             1 RES     
    1052 H           46.0969    33.6481   -12.3993 H             1 RES     
    1053 H           45.5280    35.3182   -12.6367 H             1 RES     
    1054 C           45.5636    34.1251   -14.4403 C             1 RES     
    1055 H           44.8411    34.7538   -14.9606 H             1 RES     
    1056 H           45.4100    33.0837   -14.7232 H             1 RES     
    1057 C           46.9907    34.5563   -14.8264 C             1 RES     
    1058 H           47.7132    33.9276   -14.3061 H             1 RES     
    1059 H           47.1443    35.5977   -14.5435 H             1 RES     
    1060 C           47.1799    34.4046   -16.3472 C             1 RES     
    1061 H           46.4574    35.0333   -16.8675 H             1 RES     
    1062 H           47.0263    33.3632   -16.6300 H             1 RES     
    1063 C           48.6070    34.8358   -16.7332 C             1 RES     
    1064 H           49.3295    34.2071   -16.2129 H             1 RES     
    1065 H           48.7606    35.8772   -16.4503 H             1 RES     
    1066 C           48.7962    34.6841   -18.2540 C             1 RES     
    1067 H           48.0737    35.3128   -18.7743 H             1 RES     
    1068 H           48.6426    33.6427   -18.5368 H             1 RES     
    1069 C           50.2233    35.1153   -18.6400 C             1 RES     
    1070 H           50.9458    34.4866   -18.1197 H             1 RES     
    1071 H           50.3769    36.1567   -18.3572 H             1 RES     
    1072 C           50.4125    34.9636   -20.1608 C             1 RES     
    1073 H           49.6900    35.5923   -20.6811 H             1 RES     
    1074 H           50.2589    33.9222   -20.4437 H             1 RES     
    1075 C           51.8396    35.3948   -20.5468 C             1 RES     
    1076 H           52.5621    34.7661   -20.0265 H             1 RES     
    1077 H           51.9932    36.4362   -20.2640 H             1 RES     
    1078 C           52.0202    35.2500   -21.9985 C             1 RES     
    1079 H           52.3621    34.2462   -21.8558 H             1 RES     
    1080 H           52.6141    35.7259   -22.7508 H             1 RES     
    1081 H           50.9954    35.2374   -22.3080 H             1 RES     
    1082 C           37.5681    34.8424    -5.3250 C             1 RES     
    1083 O           36.6984    33.9763    -5.4051 O             1 RES     
    1084 O           38.1807    35.3150    -4.0400 O             1 RES     
    1085 C           38.1282    35.5448    -6.4375 C             1 RES     
    1086 H           39.2037    35.3713    -6.4751 H             1 RES     
    1087 H           37.9356    36.6109    -6.3171 H             1 RES     
    1088 C           37.4829    35.0515    -7.7459 C             1 RES     
    1089 H           36.4075    35.2249    -7.7082 H             1 RES     
    1090 H           37.6755    33.9854    -7.8662 H             1 RES     
    1091 C           38.0850    35.8192    -8.9374 C             1 RES     
    1092 H           39.1604    35.6458    -8.9750 H             1 RES     
    1093 H           37.8924    36.8853    -8.8170 H             1 RES     
    1094 C           37.4397    35.3259   -10.2457 C             1 RES     
    1095 H           36.3642    35.4994   -10.2081 H             1 RES     
    1096 H           37.6323    34.2598   -10.3661 H             1 RES     
    1097 C           38.0417    36.0937   -11.4372 C             1 RES     
    1098 H           39.1172    35.9202   -11.4749 H             1 RES     
    1099 H           37.8491    37.1597   -11.3169 H             1 RES     
    1100 C           37.3964    35.6003   -12.7456 C             1 RES     
    1101 H           36.3210    35.7738   -12.7079 H             1 RES     
    1102 H           37.5890    34.5343   -12.8660 H             1 RES     
    1103 C           37.9984    36.3681   -13.9371 C             1 RES     
    1104 H           39.0739    36.1946   -13.9747 H             1 RES     
    1105 H           37.8058    37.4342   -13.8167 H             1 RES     
    1106 C           37.3532    35.8748   -15.2454 C             1 RES     
    1107 H           36.2777    36.0483   -15.2078 H             1 RES     
    1108 H           37.5458    34.8087   -15.3658 H             1 RES     
    1109 C           37.9552    36.6426   -16.4369 C             1 RES     
    1110 H           39.0306    36.4691   -16.4746 H             1 RES     
    1111 H           37.7626    37.7086   -16.3166 H             1 RES     
    1112 C           37.3099    36.1492   -17.7453 C             1 RES     
    1113 H           36.2345    36.3227   -17.7077 H             1 RES     
    1114 H           37.5025    35.0832   -17.8657 H             1 RES     
    1115 C           37.9119    36.9170   -18.9368 C             1 RES     
    1116 H           38.9874    36.7435   -18.9745 H             1 RES     
    1117 H           37.7193    37.9831   -18.8164 H             1 RES     
    1118 C           37.2666    36.4237   -20.2452 C             1 RES     
    1119 H           36.1912    36.5971   -20.2075 H             1 RES     
    1120 H           37.4592    35.3576   -20.3655 H             1 RES     
    1121 C           37.8687    37.1914   -21.4367 C             1 RES     
    1122 H           38.9441    37.0180   -21.4743 H             1 RES     
    1123 H           37.6761    38.2575   -21.3163 H             1 RES     
    1124 C           37.2234    36.6981   -22.7450 C             1 RES     
    1125 H           36.1479    36.8716   -22.7074 H             1 RES     
    1126 H           37.4160    35.6320   -22.8654 H             1 RES     
    1127 C           37.8254    37.4659   -23.9365 C             1 RES     
    1128 H           38.9009    37.2924   -23.9742 H             1 RES     
    1129 H           37.6328    38.5320   -23.8162 H             1 RES     
    1130 C           37.1801    36.9726   -25.2449 C             1 RES     
    1131 H           36.1047    37.1460   -25.2073 H             1 RES     
    1132 H           37.3727    35.9065   -25.3653 H             1 RES     
    1133 C           37.7548    37.7054   -26.3822 C             1 RES     
    1134 H           36.9927    38.4504   -26.2873 H             1 RES     
    1135 H           37.9290    37.5031   -27.4185 H             1 RES     
    1136 H           38.6587    38.0599   -25.9311 H             1 RES     
    1137 N           21.9089    32.8634     5.0000 N             1 RES     
    1138 C           21.7994    34.3258     5.2163 C             1 RES     
    1139 H           22.6275    34.8767     4.7226 H             1 RES     
    1140 H           21.8537    34.5745     6.3003 H             1 RES     
    1141 H           20.8344    34.7169     4.8234 H             1 RES     
    1142 C           23.2161    32.3843     5.5091 C             1 RES     
    1143 H           23.3347    31.2907     5.3400 H             1 RES     
    1144 H           23.3133    32.5743     6.6018 H             1 RES     
    1145 H           24.0640    32.9083     5.0194 H             1 RES     
    1146 C           20.8342    32.1957     5.7732 C             1 RES     
    1147 H           20.9175    32.4205     6.8606 H             1 RES     
    1148 H           20.8808    31.0896     5.6540 H             1 RES     
    1149 H           19.8278    32.5326     5.4364 H             1 RES     
    1150 C           21.7264    32.5129     3.5586 C             1 RES     
    1151 H           20.7217    32.8427     3.2097 H             1 RES     
    1152 H           21.7686    31.4081     3.4260 H             1 RES     
    1153 C           22.7572    33.1199     2.5960 C             1 RES     
    1154 H           23.7877    32.7614     2.7918 H             1 RES     
    1155 H           22.7178    34.2274     2.5707 H             1 RES     
    1156 P           21.7169    33.8037     0.4318 P             1 RES     
    1157 O           21.5731    33.4161    -1.1139 O             1 RES     
    1158 O           22.6466    32.7293     1.1676 O             1 RES     
    1159 O           22.4164    35.2417     0.4849 O             1 RES     
    1160 O           20.2458    33.7569     1.0592 O             1 RES     
    1161 C           20.7063    34.4322    -1.7631 C             1 RES     
    1162 H           21.1633    35.4167    -1.6628 H             1 RES     
    1163 H           19.7277    34.4347    -1.2830 H             1 RES     
    1164 C           21.3353    32.8102    -3.5797 C             1 RES     
    1165 H           22.3902    32.9684    -3.3557 H             1 RES     
    1166 H           20.9547    31.9864    -2.9759 H             1 RES     
    1167 C           20.5444    34.0914    -3.2561 C             1 RES     
    1168 H           19.4895    33.9332    -3.4801 H             1 RES     
    1169 C           22.3803    33.2938    -5.4006 C             1 RES     
    1170 O           23.0867    33.9228    -4.6142 O             1 RES     
    1171 O           21.1807    32.4849    -5.0049 O             1 RES     
    1172 C           22.5915    33.2226    -6.8131 C             1 RES     
    1173 H           21.7166    33.6123    -7.3334 H             1 RES     
    1174 H           22.7494    32.1818    -7.0959 H             1 RES     
    1175 C           23.8299    34.0526    -7.1991 C             1 RES     
    1176 H           24.7048    33.6629    -6.6788 H             1 RES     
    1177 H           23.6720    35.0934    -6.9162 H             1 RES     
    1178 C           24.0552    33.9629    -8.7199 C             1 RES     
    1179 H           23.1803    34.3526    -9.2402 H             1 RES     
    1180 H           24.2131    32.9221    -9.0027 H             1 RES     
    1181 C           25.2936    34.7929    -9.1059 C             1 RES     
    1182 H           26.1685    34.4032    -8.5856 H             1 RES     
    1183 H           25.1357    35.8337    -8.8231 H             1 RES     
    1184 C           25.5189    34.7032   -10.6267 C             1 RES     
    1185 H           24.6440    35.0929   -11.1470 H             1 RES     
    1186 H           25.6768    33.6624   -10.9096 H             1 RES     
    1187 C           26.7573    35.5332   -11.0127 C             1 RES     
    1188 H           27.6322    35.1435   -10.4924 H             1 RES     
    1189 H           26.5994    36.5740   -10.7299 H             1 RES     
    1190 C           26.9827    35.4435   -12.5335 C             1 RES     
    1191 H           26.1077    35.8332   -13.0538 H             1 RES     
    1192 H           27.1405    34.4027   -12.8164 H             1 RES     
    1193 C           28.2211    36.2735   -12.9196 C             1 RES     
    1194 H           29.0960    35.8838   -12.3993 H             1 RES     
    1195 H           28.0632    37.3143   -12.6367 H             1 RES     
    1196 C           28.4464    36.1838   -14.4403 C             1 RES     
    1197 H           27.5715    36.5735   -14.9606 H             1 RES     
    1198 H           28.6043    35.1430   -14.7232 H             1 RES     
    1199 C           29.6848    37.0138   -14.8264 C             1 RES     
    1200 H           30.5597    36.6241   -14.3061 H             1 RES     
    1201 H           29.5269    38.0546   -14.5435 H             1 RES     
    1202 C           29.9101    36.9241   -16.3472 C             1 RES     
    1203 H           29.0352    37.3138   -16.8675 H             1 RES     
    1204 H           30.0680    35.8833   -16.6300 H             1 RES     
    1205 C           31.1485    37.7541   -16.7332 C             1 RES     
    1206 H           32.0234    37.3644   -16.2129 H             1 RES     
    1207 H           30.9906    38.7949   -16.4503 H             1 RES     
    1208 C           31.3738    37.6644   -18.2540 C             1 RES     
    1209 H           30.4989    38.0541   -18.7743 H             1 RES     
    1210 H           31.5317    36.6236   -18.5368 H             1 RES     
    1211 C           32.6122    38.4944   -18.6400 C             1 RES     
    1212 H           33.4872    38.1047   -18.1197 H             1 RES     
    1213 H           32.4544    39.5352   -18.3572 H             1 RES     
    1214 C           32.8376    38.4047   -20.1608 C             1 RES     
    1215 H           31.9627    38.7944   -20.6811 H             1 RES     
    1216 H           32.9955    37.3639   -20.4437 H             1 RES     
    1217 C           34.0760    39.2347   -20.5468 C             1 RES     
    1218 H           34.9509    38.8450   -20.0265 H             1 RES     
    1219 H           33.9181    40.2755   -20.2640 H             1 RES     
    1220 C           34.2911    39.1491   -21.9985 C             1 RES     
    1221 H           34.9118    38.2893   -21.8558 H             1 RES     
    1222 H           34.7197    39.7780   -22.7508 H             1 RES     
    1223 H           33.3148    38.8371   -22.3080 H             1 RES     
    1224 C           20.5911    34.5297    -5.3250 C             1 RES     
    1225 O           20.0130    33.4469    -5.4051 O             1 RES     
    1226 O           21.0385    35.1609    -4.0400 O             1 RES     
    1227 C           20.9211    35.3652    -6.4375 C             1 RES     
    1228 H           22.0002    35.5141    -6.4751 H             1 RES     
    1229 H           20.4249    36.3283    -6.3171 H             1 RES     
    1230 C           20.4484    34.7046    -7.7459 C             1 RES     
    1231 H           19.3693    34.5558    -7.7082 H             1 RES     
    1232 H           20.9446    33.7416    -7.8662 H             1 RES     
    1233 C           20.7994    35.6150    -8.9374 C             1 RES     
    1234 H           21.8785    35.7639    -8.9750 H             1 RES     
    1235 H           20.3032    36.5780    -8.8170 H             1 RES     
    1236 C           20.3267    34.9544   -10.2457 C             1 RES     
    1237 H           19.2476    34.8055   -10.2081 H             1 RES     
    1238 H           20.8229    33.9914   -10.3661 H             1 RES     
    1239 C           20.6777    35.8648   -11.4372 C             1 RES     
    1240 H           21.7568    36.0136   -11.4749 H             1 RES     
    1241 H           20.1815    36.8278   -11.3169 H             1 RES     
    1242 C           20.2050    35.2042   -12.7456 C             1 RES     
    1243 H           19.1259    35.0553   -12.7079 H             1 RES     
    1244 H           20.7012    34.2411   -12.8660 H             1 RES     
    1245 C           20.5560    36.1145   -13.9371 C             1 RES     
    1246 H           21.6351    36.2634   -13.9747 H             1 RES     
    1247 H           20.0598    37.0776   -13.8167 H             1 RES     
    1248 C           20.0834    35.4539   -15.2454 C             1 RES     
    1249 H           19.0042    35.3051   -15.2078 H             1 RES     
    1250 H           20.5795    34.4909   -15.3658 H             1 RES     
    1251 C           20.4343    36.3643   -16.4369 C             1 RES     
    1252 H           21.5135    36.5132   -16.4746 H             1 RES     
    1253 H           19.9382    37.3273   -16.3166 H             1 RES     
    1254 C           19.9617    35.7037   -17.7453 C             1 RES     
    1255 H           18.8826    35.5548   -17.7077 H             1 RES     
    1256 H           20.4579    34.7407   -17.8657 H             1 RES     
    1257 C           20.3126    36.6141   -18.9368 C             1 RES     
    1258 H           21.3918    36.7629   -18.9745 H             1 RES     
    1259 H           19.8165    37.5771   -18.8164 H             1 RES     
    1260 C           19.8400    35.9535   -20.2452 C             1 RES     
    1261 H           18.7609    35.8046   -20.2075 H             1 RES     
    1262 H           20.3362    34.9904   -20.3655 H             1 RES     
    1263 C           20.1910    36.8638   -21.4367 C             1 RES     
    1264 H           21.2701    37.0127   -21.4743 H             1 RES     
    1265 H           19.6948    37.8269   -21.3163 H             1 RES     
    1266 C           19.7183    36.2032   -22.7450 C             1 RES     
    1267 H           18.6392    36.0544   -22.7074 H             1 RES     
    1268 H           20.2145    35.2402   -22.8654 H             1 RES     
    1269 C           20.0693    37.1136   -23.9365 C             1 RES     
    1270 H           21.1484    37.2625   -23.9742 H             1 RES     
    1271 H           19.5731    38.0766   -23.8162 H             1 RES     
    1272 C           19.5966    36.4530   -25.2449 C             1 RES     
    1273 H           18.5175    36.3041   -25.2073 H             1 RES     
    1274 H           20.0928    35.4900   -25.3653 H             1 RES     
    1275 C           19.9316    37.3220   -26.3822 C             1 RES     
    1276 H           18.9848    37.8113   -26.2873 H             1 RES     
    1277 H           20.1575    37.1795   -27.4185 H             1 RES     
    1278 H           20.6922    37.9255   -25.9311 H             1 RES     
    1279 N           27.3861    49.2950     5.0000 N             1 RES     
    1280 C           27.3305    50.7605     5.2163 C             1 RES     
    1281 H           28.1784    51.2806     4.7226 H             1 RES     
    1282 H           27.3940    51.0071     6.3003 H             1 RES     
    1283 H           26.3806    51.1869     4.8234 H             1 RES     
    1284 C           28.6748    48.7682     5.5091 C             1 RES     
    1285 H           28.7531    47.6710     5.3400 H             1 RES     
    1286 H           28.7789    48.9545     6.6018 H             1 RES     
    1287 H           29.5415    49.2606     5.0194 H             1 RES     
    1288 C           26.2875    48.6673     5.7732 C             1 RES     
    1289 H           26.3791    48.8889     6.8606 H             1 RES     
    1290 H           26.2935    47.5603     5.6540 H             1 RES     
    1291 H           25.2943    49.0411     5.4364 H             1 RES     
    1292 C           27.1909    48.9515     3.5586 C             1 RES     
    1293 H           26.1990    49.3181     3.2097 H             1 RES     
    1294 H           27.1924    47.8459     3.4260 H             1 RES     
    1295 C           28.2433    49.5202     2.5960 C             1 RES     
    1296 H           29.2599    49.1240     2.7918 H             1 RES     
    1297 H           28.2447    50.6284     2.5707 H             1 RES     
    1298 P           27.2289    50.2418     0.4318 P             1 RES     
    1299 O           27.0709    49.8597    -1.1139 O             1 RES     
    1300 O           28.1184    49.1339     1.1676 O             1 RES     
    1301 O           27.9808    51.6531     0.4849 O             1 RES     
    1302 O           25.7570    50.2492     1.0592 O             1 RES     
    1303 C           26.2421    50.9070    -1.7631 C             1 RES     
    1304 H           26.7350    51.8741    -1.6628 H             1 RES     
    1305 H           25.2642    50.9455    -1.2830 H             1 RES     
    1306 C           26.8109    49.2630    -3.5797 C             1 RES     
    1307 H           27.8710    49.3823    -3.3557 H             1 RES     
    1308 H           26.4003    48.4538    -2.9759 H             1 RES     
    1309 C           26.0678    50.5725    -3.2561 C             1 RES     
    1310 H           25.0077    50.4532    -3.4801 H             1 RES     
    1311 C           27.8731    49.7079    -5.4006 C             1 RES     
    1312 O           28.6021    50.3104    -4.6142 O             1 RES     
    1313 O           26.6445    48.9437    -5.0049 O             1 RES     
    1314 C           28.0815    49.6289    -6.8131 C             1 RES     
    1315 H           27.2215    50.0506    -7.3334 H             1 RES     
    1316 H           28.2009    48.5830    -7.0959 H             1 RES     
    1317 C           29.3496    50.4128    -7.1991 C             1 RES     
    1318 H           30.2095    49.9911    -6.6788 H             1 RES     
    1319 H           29.2301    51.4587    -6.9162 H             1 RES     
    1320 C           29.5714    50.3148    -8.7199 C             1 RES     
    1321 H           28.7114    50.7365    -9.2402 H             1 RES     
    1322 H           29.6909    49.2690    -9.0027 H             1 RES     
    1323 C           30.8395    51.0987    -9.1059 C             1 RES     
    1324 H           31.6995    50.6771    -8.5856 H             1 RES     
    1325 H           30.7200    52.1446    -8.8231 H             1 RES     
    1326 C           31.0614    51.0008   -10.6267 C             1 RES     
    1327 H           30.2014    51.4224   -11.1470 H             1 RES     
    1328 H           31.1809    49.9549   -10.9096 H             1 RES     
    1329 C           32.3295    51.7847   -11.0127 C             1 RES     
    1330 H           33.1895    51.3630   -10.4924 H             1 RES     
    1331 H           32.2100    52.8305   -10.7299 H             1 RES     
    1332 C           32.5514    51.6867   -12.5335 C             1 RES     
    1333 H           31.6914    52.1084   -13.0538 H             1 RES     
    1334 H           32.6709    50.6409   -12.8164 H             1 RES     
    1335 C           33.8195    52.4706   -12.9196 C             1 RES     
    1336 H           34.6795    52.0489   -12.3993 H             1 RES     
    1337 H           33.7000    53.5165   -12.6367 H             1 RES     
    1338 C           34.0414    52.3726   -14.4403 C             1 RES     
    1339 H           33.1814    52.7943   -14.9606 H             1 RES     
    1340 H           34.1609    51.3268   -14.7232 H             1 RES     
    1341 C           35.3095    53.1565   -14.8264 C             1 RES     
    1342 H           36.1695    52.7349   -14.3061 H             1 RES     
    1343 H           35.1900    54.2024   -14.5435 H             1 RES     
    1344 C           35.5314    53.0586   -16.3472 C             1 RES     
    1345 H           34.6714    53.4803   -16.8675 H             1 RES     
    1346 H           35.6508    52.0127   -16.6300 H             1 RES     
    1347 C           36.7994    53.8425   -16.7332 C             1 RES     
    1348 H           37.6594    53.4208   -16.2129 H             1 RES     
    1349 H           36.6800    54.8883   -16.4503 H             1 RES     
    1350 C           37.0213    53.7445   -18.2540 C             1 RES     
    1351 H           36.1613    54.1662   -18.7743 H             1 RES     
    1352 H           37.1408    52.6987   -18.5368 H             1 RES     
    1353 C           38.2894    54.5284   -18.6400 C             1 RES     
    1354 H           39.1494    54.1067   -18.1197 H             1 RES     
    1355 H           38.1699    55.5743   -18.3572 H             1 RES     
    1356 C           38.5113    54.4305   -20.1608 C             1 RES     
    1357 H           37.6513    54.8521   -20.6811 H             1 RES     
    1358 H           38.6308    53.3846   -20.4437 H             1 RES     
    1359 C           39.7794    55.2144   -20.5468 C             1 RES     
    1360 H           40.6394    54.7927   -20.0265 H             1 RES     
    1361 H           39.6599    56.2602   -20.2640 H             1 RES     
    1362 C           39.9912    55.1209   -21.9985 C             1 RES     
    1363 H           40.5799    54.2388   -21.8558 H             1 RES     
    1364 H           40.4427    55.7336   -22.7508 H             1 RES     
    1365 H           39.0041    54.8450   -22.3080 H             1 RES     
    1366 C           26.1305    51.0087    -5.3250 C             1 RES     
    1367 O           25.5129    49.9480    -5.4051 O             1 RES     
    1368 O           26.6009    51.6230    -4.0400 O             1 RES     
    1369 C           26.4910    51.8316    -6.4375 C             1 RES     
    1370 H           27.5749    51.9406    -6.4751 H             1 RES     
    1371 H           26.0306    52.8122    -6.3171 H             1 RES     
    1372 C           25.9944    51.1888    -7.7459 C             1 RES     
    1373 H           24.9105    51.0797    -7.7082 H             1 RES     
    1374 H           26.4548    50.2082    -7.8662 H             1 RES     
    1375 C           26.3786    52.0856    -8.9374 C             1 RES     
    1376 H           27.4625    52.1947    -8.9750 H             1 RES     
    1377 H           25.9182    53.0663    -8.8170 H             1 RES     
    1378 C           25.8820    51.4429   -10.2457 C             1 RES     
    1379 H           24.7981    51.3338   -10.2081 H             1 RES     
    1380 H           26.3424    50.4622   -10.3661 H             1 RES     
    1381 C           26.2662    52.3397   -11.4372 C             1 RES     
    1382 H           27.3501    52.4488   -11.4749 H             1 RES     
    1383 H           25.8058    53.3203   -11.3169 H             1 RES     
    1384 C           25.7696    51.6970   -12.7456 C             1 RES     
    1385 H           24.6857    51.5879   -12.7079 H             1 RES     
    1386 H           26.2300    50.7163   -12.8660 H             1 RES     
    1387 C           26.1538    52.5938   -13.9371 C             1 RES     
    1388 H           27.2377    52.7029   -13.9747 H             1 RES     
    1389 H           25.6934    53.5744   -13.8167 H             1 RES     
    1390 C           25.6572    51.9510   -15.2454 C             1 RES     
    1391 H           24.5733    51.8420   -15.2078 H             1 RES     
    1392 H           26.1176    50.9704   -15.3658 H             1 RES     
    1393 C           26.0414    52.8479   -16.4369 C             1 RES     
    1394 H           27.1253    52.9569   -16.4746 H             1 RES     
    1395 H           25.5810    53.8285   -16.3166 H             1 RES     
    1396 C           25.5447    52.2051   -17.7453 C             1 RES     
    1397 H           24.4609    52.0960   -17.7077 H             1 RES     
    1398 H           26.0051    51.2245   -17.8657 H             1 RES     
    1399 C           25.9290    53.1019   -18.9368 C             1 RES     
    1400 H           27.0128    53.2110   -18.9745 H             1 RES     
    1401 H           25.4686    54.0826   -18.8164 H             1 RES     
    1402 C           25.4323    52.4592   -20.2452 C             1 RES     
    1403 H           24.3485    52.3501   -20.2075 H             1 RES     
    1404 H           25.8927    51.4785   -20.3655 H             1 RES     
    1405 C           25.8166    53.3560   -21.4367 C             1 RES     
    1406 H           26.9004    53.4651   -21.4743 H             1 RES     
    1407 H           25.3562    54.3366   -21.3163 H             1 RES     
    1408 C           25.3199    52.7133   -22.7450 C             1 RES     
    1409 H           24.2360    52.6042   -22.7074 H             1 RES     
    1410 H           25.7803    51.7326   -22.8654 H             1 RES     
    1411 C           25.7042    53.6101   -23.9365 C             1 RES     
    1412 H           26.7880    53.7192   -23.9742 H             1 RES     
    1413 H           25.2438    54.5907   -23.8162 H             1 RES     
    1414 C           25.2075    52.9673   -25.2449 C             1 RES     
    1415 H           24.1236    52.8583   -25.2073 H             1 RES     
    1416 H           25.6679    51.9867   -25.3653 H             1 RES     
    1417 C           25.5743    53.8234   -26.3822 C             1 RES     
    1418 H           24.6461    54.3472   -26.2873 H             1 RES     
    1419 H           25.7947    53.6727   -27.4185 H             1 RES     
    1420 H           26.3566    54.3985   -25.9311 H             1 RES     
    1421 N           16.4317    49.2950     5.0000 N             1 RES     
    1422 C           16.4850    50.7606     5.2163 C             1 RES     
    1423 H           17.3692    51.2162     4.7226 H             1 RES     
    1424 H           16.5667    51.0018     6.3003 H             1 RES     
    1425 H           15.5694    51.2564     4.8234 H             1 RES     
    1426 C           17.6777    48.6740     5.5091 C             1 RES     
    1427 H           17.6742    47.5740     5.3400 H             1 RES     
    1428 H           17.7954    48.8520     6.6018 H             1 RES     
    1429 H           18.5785    49.1006     5.0194 H             1 RES     
    1430 C           15.2895    48.7507     5.7732 C             1 RES     
    1431 H           15.3973    48.9649     6.8606 H             1 RES     
    1432 H           15.2132    47.6462     5.6540 H             1 RES     
    1433 H           14.3267    49.1972     5.4364 H             1 RES     
    1434 C           16.2114    48.9670     3.5586 C             1 RES     
    1435 H           15.2495    49.4062     3.2097 H             1 RES     
    1436 H           16.1308    47.8643     3.4260 H             1 RES     
    1437 C           17.3032    49.4559     2.5960 C             1 RES     
    1438 H           18.2875    48.9853     2.7918 H             1 RES     
    1439 H           17.3869    50.5610     2.5707 H             1 RES     
    1440 P           16.3452    50.2509     0.4318 P             1 RES     
    1441 O           16.1593    49.8816    -1.1139 O             1 RES     
    1442 O           17.1499    49.0800     1.1676 O             1 RES     
    1443 O           17.1998    51.6024     0.4849 O             1 RES     
    1444 O           14.8780    50.3676     1.0592 O             1 RES     
    1445 C           15.4105    50.9876    -1.7631 C             1 RES     
    1446 H           15.9739    51.9153    -1.6628 H             1 RES     
    1447 H           14.4383    51.0986    -1.2830 H             1 RES     
    1448 C           15.8557    49.3058    -3.5797 C             1 RES     
    1449 H           16.9217    49.3460    -3.3557 H             1 RES     
    1450 H           15.3860    48.5293    -2.9759 H             1 RES     
    1451 C           15.2118    50.6669    -3.2561 C             1 RES     
    1452 H           14.1459    50.6267    -3.4801 H             1 RES     
    1453 C           16.9480    49.6706    -5.4006 C             1 RES     
    1454 O           17.7197    50.2173    -4.6142 O             1 RES     
    1455 O           15.6660    48.9997    -5.0049 O             1 RES     
    1456 C           17.1499    49.5763    -6.8131 C             1 RES     
    1457 H           16.3236    50.0607    -7.3334 H             1 RES     
    1458 H           17.1913    48.5245    -7.0959 H             1 RES     
    1459 C           18.4727    50.2639    -7.1991 C             1 RES     
    1460 H           19.2990    49.7795    -6.6788 H             1 RES     
    1461 H           18.4312    51.3157    -6.9162 H             1 RES     
    1462 C           18.6867    50.1497    -8.7199 C             1 RES     
    1463 H           17.8604    50.6341    -9.2402 H             1 RES     
    1464 H           18.7282    49.0978    -9.0027 H             1 RES     
    1465 C           20.0095    50.8372    -9.1059 C             1 RES     
    1466 H           20.8358    50.3528    -8.5856 H             1 RES     
    1467 H           19.9681    51.8891    -8.8231 H             1 RES     
    1468 C           20.2235    50.7230   -10.6267 C             1 RES     
    1469 H           19.3972    51.2074   -11.1470 H             1 RES     
    1470 H           20.2650    49.6712   -10.9096 H             1 RES     
    1471 C           21.5463    51.4106   -11.0127 C             1 RES     
    1472 H           22.3726    50.9262   -10.4924 H             1 RES     
    1473 H           21.5049    52.4624   -10.7299 H             1 RES     
    1474 C           21.7603    51.2964   -12.5335 C             1 RES     
    1475 H           20.9340    51.7808   -13.0538 H             1 RES     
    1476 H           21.8018    50.2446   -12.8164 H             1 RES     
    1477 C           23.0832    51.9840   -12.9196 C             1 RES     
    1478 H           23.9094    51.4996   -12.3993 H             1 RES     
    1479 H           23.0417    53.0358   -12.6367 H             1 RES     
    1480 C           23.2971    51.8698   -14.4403 C             1 RES     
    1481 H           22.4709    52.3542   -14.9606 H             1 RES     
    1482 H           23.3386    50.8179   -14.7232 H             1 RES     
    1483 C           24.6200    52.5573   -14.8264 C             1 RES     
    1484 H           25.4463    52.0729   -14.3061 H             1 RES     
    1485 H           24.5785    53.6092   -14.5435 H             1 RES     
    1486 C           24.8340    52.4431   -16.3472 C             1 RES     
    1487 H           24.0077    52.9275   -16.8675 H             1 RES     
    1488 H           24.8754    51.3913   -16.6300 H             1 RES     
    1489 C           26.1568    53.1307   -16.7332 C             1 RES     
    1490 H           26.9831    52.6463   -16.2129 H             1 RES     
    1491 H           26.1153    54.1825   -16.4503 H             1 RES     
    1492 C           26.3708    53.0165   -18.2540 C             1 RES     
    1493 H           25.5445    53.5009   -18.7743 H             1 RES     
    1494 H           26.4122    51.9647   -18.5368 H             1 RES     
    1495 C           27.6936    53.7040   -18.6400 C             1 RES     
    1496 H           28.5199    53.2197   -18.1197 H             1 RES     
    1497 H           27.6521    54.7559   -18.3572 H             1 RES     
    1498 C           27.9076    53.5899   -20.1608 C             1 RES     
    1499 H           27.0813    54.0743   -20.6811 H             1 RES     
    1500 H           27.9491    52.5380   -20.4437 H             1 RES     
    1501 C           29.2304    54.2774   -20.5468 C             1 RES     
    1502 H           30.0567    53.7930   -20.0265 H             1 RES     
    1503 H           29.1889    55.3293   -20.2640 H             1 RES     
    1504 C           29.4347    54.1684   -21.9985 C             1 RES     
    1505 H           29.9562    53.2451   -21.8558 H             1 RES     
    1506 H           29.9304    54.7459   -22.7508 H             1 RES     
    1507 H           28.4298    53.9667   -22.3080 H             1 RES     
    1508 C           15.3068    51.0972    -5.3250 C             1 RES     
    1509 O           14.6122    50.0853    -5.4051 O             1 RES     
    1510 O           15.8215    51.6749    -4.0400 O             1 RES     
    1511 C           15.7275    51.8910    -6.4375 C             1 RES     
    1512 H           16.8164    51.9193    -6.4751 H             1 RES     
    1513 H           15.3412    52.9032    -6.3171 H             1 RES     
    1514 C           15.1844    51.2870    -7.7459 C             1 RES     
    1515 H           14.0955    51.2587    -7.7082 H             1 RES     
    1516 H           15.5707    50.2748    -7.8662 H             1 RES     
    1517 C           15.6342    52.1528    -8.9374 C             1 RES     
    1518 H           16.7232    52.1810    -8.9750 H             1 RES     
    1519 H           15.2479    53.1649    -8.8170 H             1 RES     
    1520 C           15.0912    51.5487   -10.2457 C             1 RES     
    1521 H           14.0022    51.5204   -10.2081 H             1 RES     
    1522 H           15.4775    50.5366   -10.3661 H             1 RES     
    1523 C           15.5410    52.4145   -11.4372 C             1 RES     
    1524 H           16.6300    52.4427   -11.4749 H             1 RES     
    1525 H           15.1547    53.4266   -11.3169 H             1 RES     
    1526 C           14.9980    51.8104   -12.7456 C             1 RES     
    1527 H           13.9090    51.7821   -12.7079 H             1 RES     
    1528 H           15.3843    50.7983   -12.8660 H             1 RES     
    1529 C           15.4478    52.6762   -13.9371 C             1 RES     
    1530 H           16.5368    52.7045   -13.9747 H             1 RES     
    1531 H           15.0615    53.6883   -13.8167 H             1 RES     
    1532 C           14.9048    52.0721   -15.2454 C             1 RES     
    1533 H           13.8158    52.0439   -15.2078 H             1 RES     
    1534 H           15.2911    51.0600   -15.3658 H             1 RES     
    1535 C           15.3546    52.9379   -16.4369 C             1 RES     
    1536 H           16.4435    52.9662   -16.4746 H             1 RES     
    1537 H           14.9683    53.9501   -16.3166 H             1 RES     
    1538 C           14.8115    52.3338   -17.7453 C             1 RES     
    1539 H           13.7226    52.3056   -17.7077 H             1 RES     
    1540 H           15.1978    51.3217   -17.8657 H             1 RES     
    1541 C           15.2613    53.1997   -18.9368 C             1 RES     
    1542 H           16.3503    53.2279   -18.9745 H             1 RES     
    1543 H           14.8750    54.2118   -18.8164 H             1 RES     
    1544 C           14.7183    52.5956   -20.2452 C             1 RES     
    1545 H           13.6293    52.5673   -20.2075 H             1 RES     
    1546 H           15.1046    51.5834   -20.3655 H             1 RES     
    1547 C           15.1681    53.4614   -21.4367 C             1 RES     
    1548 H           16.2571    53.4896   -21.4743 H             1 RES     
    1549 H           14.7818    54.4735   -21.3163 H             1 RES     
    1550 C           14.6251    52.8573   -22.7450 C             1 RES     
    1551 H           13.5361    52.8290   -22.7074 H             1 RES     
    1552 H           15.0114    51.8452   -22.8654 H             1 RES     
    1553 C           15.0749    53.7231   -23.9365 C             1 RES     
    1554 H           16.1639    53.7514   -23.9742 H             1 RES     
    1555 H           14.6886    54.7352   -23.8162 H             1 RES     
    1556 C           14.5319    53.1190   -25.2449 C             1 RES     
    1557 H           13.4429    53.0908   -25.2073 H             1 RES     
    1558 H           14.9182    52.1069   -25.3653 H             1 RES     
    1559 C           14.9612    53.9455   -26.3822 C             1 RES     
    1560 H           14.0745    54.5368   -26.2873 H             1 RES     
    1561 H           15.1698    53.7788   -27.4185 H             1 RES     
    1562 H           15.7841    54.4608   -25.9311 H             1 RES     
    1563 N           49.2950     0.0000     5.0000 N             1 RES     
    1564 C           49.7086     1.4070     5.2163 C             1 RES     
    1565 H           50.6779     1.6302     4.7226 H             1 RES     
    1566 H           49.8473     1.6206     6.3003 H             1 RES     
    1567 H           48.9438     2.1135     4.8234 H             1 RES     
    1568 C           50.3491    -0.9095     5.5091 C             1 RES     
    1569 H           50.0741    -1.9746     5.3400 H             1 RES     
    1570 H           50.5071    -0.7660     6.6018 H             1 RES     
    1571 H           51.3274    -0.7185     5.0194 H             1 RES     
    1572 C           48.0538    -0.2455     5.7732 C             1 RES     
    1573 H           48.2111    -0.0645     6.8606 H             1 RES     
    1574 H           47.7072    -1.2969     5.6540 H             1 RES     
    1575 H           47.2311     0.4249     5.4364 H             1 RES     
    1576 C           49.0006    -0.2635     3.5586 C             1 RES     
    1577 H           48.1769     0.3996     3.2097 H             1 RES     
    1578 H           48.6502    -1.3122     3.4260 H             1 RES     
    1579 C           50.1793    -0.0593     2.5960 C             1 RES     
    1580 H           51.0169    -0.7584     2.7918 H             1 RES     
    1581 H           50.5333     0.9909     2.5707 H             1 RES     
    1582 P           49.4472     0.9476     0.4318 P             1 RES     
    1583 O           49.1759     0.6357    -1.1139 O             1 RES     
    1584 O           49.9379    -0.3858     1.1676 O             1 RES     
    1585 O           50.6091     2.0463     0.4849 O             1 RES     
    1586 O           48.0542     1.4230     1.0592 O             1 RES     
    1587 C           48.7234     1.8923    -1.7631 C             1 RES     
    1588 H           49.4984     2.6522    -1.6628 H             1 RES     
    1589 H           47.8087     2.2399    -1.2830 H             1 RES     
    1590 C           48.7395     0.1527    -3.5797 C             1 RES     
    1591 H           49.7824    -0.0716    -3.3557 H             1 RES     
    1592 H           48.0927    -0.4838    -2.9759 H             1 RES     
    1593 C           48.4517     1.6306    -3.2561 C             1 RES     
    1594 H           47.4088     1.8548    -3.4801 H             1 RES     
    1595 C           49.8881     0.2364    -5.4006 C             1 RES     
    1596 O           50.7709     0.5756    -4.6142 O             1 RES     
    1597 O           48.4801    -0.0971    -5.0049 O             1 RES     
    1598 C           50.0605     0.0952    -6.8131 C             1 RES     
    1599 H           49.3794     0.7687    -7.3334 H             1 RES     
    1600 H           49.8409    -0.9343    -7.0959 H             1 RES     
    1601 C           51.5121     0.4349    -7.1991 C             1 RES     
    1602 H           52.1932    -0.2386    -6.6788 H             1 RES     
    1603 H           51.7316     1.4644    -6.9162 H             1 RES     
    1604 C           51.6913     0.2714    -8.7199 C             1 RES     
    1605 H           51.0102     0.9448    -9.2402 H             1 RES     
    1606 H           51.4717    -0.7581    -9.0027 H             1 RES     
    1607 C           53.1429     0.6110    -9.1059 C             1 RES     
    1608 H           53.8240    -0.0624    -8.5856 H             1 RES     
    1609 H           53.3624     1.6405    -8.8231 H             1 RES     
    1610 C           53.3221     0.4475   -10.6267 C             1 RES     
    1611 H           52.6410     1.1209   -11.1470 H             1 RES     
    1612 H           53.1025    -0.5820   -10.9096 H             1 RES     
    1613 C           54.7737     0.7871   -11.0127 C             1 RES     
    1614 H           55.4548     0.1137   -10.4924 H             1 RES     
    1615 H           54.9932     1.8166   -10.7299 H             1 RES     
    1616 C           54.9529     0.6236   -12.5335 C             1 RES     
    1617 H           54.2718     1.2971   -13.0538 H             1 RES     
    1618 H           54.7333    -0.4059   -12.8164 H             1 RES     
    1619 C           56.4045     0.9633   -12.9196 C             1 RES     
    1620 H           57.0856     0.2898   -12.3993 H             1 RES     
    1621 H           56.6240     1.9928   -12.6367 H             1 RES     
    1622 C           56.5837     0.7998   -14.4403 C             1 RES     
    1623 H           55.9026     1.4732   -14.9606 H             1 RES     
    1624 H           56.3641    -0.2297   -14.7232 H             1 RES     
    1625 C           58.0353     1.1394   -14.8264 C             1 RES     
    1626 H           58.7164     0.4660   -14.3061 H             1 RES     
    1627 H           58.2548     2.1689   -14.5435 H             1 RES     
    1628 C           58.2145     0.9759   -16.3472 C             1 RES     
    1629 H           57.5334     1.6493   -16.8675 H             1 RES     
    1630 H           57.9949    -0.0536   -16.6300 H             1 RES     
    1631 C           59.6661     1.3155   -16.7332 C             1 RES     
    1632 H           60.3472     0.6421   -16.2129 H             1 RES     
    1633 H           59.8857     2.3450   -16.4503 H             1 RES     
    1634 C           59.8453     1.1521   -18.2540 C             1 RES     
    1635 H           59.1642     1.8255   -18.7743 H             1 RES     
    1636 H           59.6257     0.1225   -18.5368 H             1 RES     
    1637 C           61.2969     1.4917   -18.6400 C             1 RES     
    1638 H           61.9780     0.8182   -18.1197 H             1 RES     
    1639 H           61.5165     2.5212   -18.3572 H             1 RES     
    1640 C           61.4761     1.3282   -20.1608 C             1 RES     
    1641 H           60.7950     2.0016   -20.6811 H             1 RES     
    1642 H           61.2565     0.2987   -20.4437 H             1 RES     
    1643 C           62.9277     1.6678   -20.5468 C             1 RES     
    1644 H           63.6088     0.9944   -20.0265 H             1 RES     
    1645 H           63.1473     2.6973   -20.2640 H             1 RES     
    1646 C           63.0987     1.5118   -21.9985 C             1 RES     
    1647 H           63.3762     0.4882   -21.8558 H             1 RES     
    1648 H           63.7217     1.9489   -22.7508 H             1 RES     
    1649 H           62.0752     1.5644   -22.3080 H             1 RES     
    1650 C           48.6500     2.0242    -5.3250 C             1 RES     
    1651 O           47.7270     1.2151    -5.4051 O             1 RES     
    1652 O           49.2914     2.4569    -4.0400 O             1 RES     
    1653 C           49.2536     2.6895    -6.4375 C             1 RES     
    1654 H           50.3159     2.4480    -6.4751 H             1 RES     
    1655 H           49.1292     3.7657    -6.3171 H             1 RES     
    1656 C           48.5783     2.2382    -7.7459 C             1 RES     
    1657 H           47.5160     2.4797    -7.7082 H             1 RES     
    1658 H           48.7027     1.1621    -7.8662 H             1 RES     
    1659 C           49.2279     2.9662    -8.9374 C             1 RES     
    1660 H           50.2902     2.7246    -8.9750 H             1 RES     
    1661 H           49.1035     4.0423    -8.8170 H             1 RES     
    1662 C           48.5526     2.5149   -10.2457 C             1 RES     
    1663 H           47.4903     2.7564   -10.2081 H             1 RES     
    1664 H           48.6770     1.4387   -10.3661 H             1 RES     
    1665 C           49.2022     3.2428   -11.4372 C             1 RES     
    1666 H           50.2644     3.0013   -11.4749 H             1 RES     
    1667 H           49.0778     4.3190   -11.3169 H             1 RES     
    1668 C           48.5268     2.7915   -12.7456 C             1 RES     
    1669 H           47.4646     3.0330   -12.7079 H             1 RES     
    1670 H           48.6513     1.7153   -12.8660 H             1 RES     
    1671 C           49.1765     3.5194   -13.9371 C             1 RES     
    1672 H           50.2387     3.2779   -13.9747 H             1 RES     
    1673 H           49.0521     4.5956   -13.8167 H             1 RES     
    1674 C           48.5011     3.0681   -15.2454 C             1 RES     
    1675 H           47.4389     3.3096   -15.2078 H             1 RES     
    1676 H           48.6255     1.9920   -15.3658 H             1 RES     
    1677 C           49.1508     3.7961   -16.4369 C             1 RES     
    1678 H           50.2130     3.5545   -16.4746 H             1 RES     
    1679 H           49.0264     4.8722   -16.3166 H             1 RES     
    1680 C           48.4754     3.3448   -17.7453 C             1 RES     
    1681 H           47.4132     3.5863   -17.7077 H             1 RES     
    1682 H           48.5998     2.2686   -17.8657 H             1 RES     
    1683 C           49.1251     4.0727   -18.9368 C             1 RES     
    1684 H           50.1873     3.8312   -18.9745 H             1 RES     
    1685 H           49.0007     5.1489   -18.8164 H             1 RES     
    1686 C           48.4497     3.6214   -20.2452 C             1 RES     
    1687 H           47.3875     3.8629   -20.2075 H             1 RES     
    1688 H           48.5741     2.5452   -20.3655 H             1 RES     
    1689 C           49.0994     4.3493   -21.4367 C             1 RES     
    1690 H           50.1616     4.1078   -21.4743 H             1 RES     
    1691 H           48.9749     5.4255   -21.3163 H             1 RES     
    1692 C           48.4240     3.8980   -22.7450 C             1 RES     
    1693 H           47.3618     4.1396   -22.7074 H             1 RES     
    1694 H           48.5484     2.8219   -22.8654 H             1 RES     
    1695 C           49.0736     4.6260   -23.9365 C             1 RES     
    1696 H           50.1359     4.3845   -23.9742 H             1 RES     
    1697 H           48.9492     5.7021   -23.8162 H             1 RES     
    1698 C           48.3983     4.1747   -25.2449 C             1 RES     
    1699 H           47.3360     4.4162   -25.2073 H             1 RES     
    1700 H           48.5227     3.0985   -25.3653 H             1 RES     
    1701 C           49.0184     4.8695   -26.3822 C             1 RES     
    1702 H           48.3052     5.6615   -26.2873 H             1 RES     
    1703 H           49.1794     4.6565   -27.4185 H             1 RES     
    1704 H           49.9430     5.1658   -25.9311 H             1 RES     
    1705 N           10.9545    49.2950     5.0000 N             1 RES     
    1706 C           11.3051    50.7190     5.2163 C             1 RES     
    1707 H           12.2635    50.9851     4.7226 H             1 RES     
    1708 H           11.4341    50.9385     6.3003 H             1 RES     
    1709 H           10.5096    51.3908     4.8234 H             1 RES     
    1710 C           12.0479    48.4333     5.5091 C             1 RES     
    1711 H           11.8206    47.3570     5.3400 H             1 RES     
    1712 H           12.1994    48.5836     6.6018 H             1 RES     
    1713 H           13.0167    48.6676     5.0194 H             1 RES     
    1714 C            9.7254    48.9946     5.7732 C             1 RES     
    1715 H            9.8745    49.1824     6.8606 H             1 RES     
    1716 H            9.4258    47.9289     5.6540 H             1 RES     
    1717 H            8.8737    49.6278     5.4364 H             1 RES     
    1718 C           10.6720    49.0187     3.5586 C             1 RES     
    1719 H            9.8197    49.6445     3.2097 H             1 RES     
    1720 H           10.3686    47.9555     3.4260 H             1 RES     
    1721 C           11.8405    49.2751     2.5960 C             1 RES     
    1722 H           12.7084    48.6139     2.7918 H             1 RES     
    1723 H           12.1475    50.3400     2.5707 H             1 RES     
    1724 P           11.0644    50.2484     0.4318 P             1 RES     
    1725 O           10.8072    49.9248    -1.1139 O             1 RES     
    1726 O           11.6138    48.9382     1.1676 O             1 RES     
    1727 O           12.1763    51.3977     0.4849 O             1 RES     
    1728 O            9.6517    50.6614     1.0592 O             1 RES     
    1729 C           10.2993    51.1600    -1.7631 C             1 RES     
    1730 H           11.0398    51.9536    -1.6628 H             1 RES     
    1731 H            9.3700    51.4667    -1.2830 H             1 RES     
    1732 C           10.3927    49.4229    -3.5797 C             1 RES     
    1733 H           11.4445    49.2452    -3.3557 H             1 RES     
    1734 H            9.7748    48.7583    -2.9759 H             1 RES     
    1735 C           10.0395    50.8865    -3.2561 C             1 RES     
    1736 H            8.9877    51.0642    -3.4801 H             1 RES     
    1737 C           11.5364    49.5576    -5.4006 C             1 RES     
    1738 O           12.4033    49.9357    -4.6142 O             1 RES     
    1739 O           10.1447    49.1618    -5.0049 O             1 RES     
    1740 C           11.7149    49.4242    -6.8131 C             1 RES     
    1741 H           11.0045    50.0667    -7.3334 H             1 RES     
    1742 H           11.5413    48.3859    -7.0959 H             1 RES     
    1743 C           13.1500    49.8280    -7.1991 C             1 RES     
    1744 H           13.8603    49.1855    -6.6788 H             1 RES     
    1745 H           13.3236    50.8662    -6.9162 H             1 RES     
    1746 C           13.3363    49.6726    -8.7199 C             1 RES     
    1747 H           12.6259    50.3151    -9.2402 H             1 RES     
    1748 H           13.1627    48.6344    -9.0027 H             1 RES     
    1749 C           14.7714    50.0764    -9.1059 C             1 RES     
    1750 H           15.4817    49.4339    -8.5856 H             1 RES     
    1751 H           14.9449    51.1147    -8.8231 H             1 RES     
    1752 C           14.9576    49.9211   -10.6267 C             1 RES     
    1753 H           14.2473    50.5636   -11.1470 H             1 RES     
    1754 H           14.7840    48.8828   -10.9096 H             1 RES     
    1755 C           16.3927    50.3249   -11.0127 C             1 RES     
    1756 H           17.1031    49.6824   -10.4924 H             1 RES     
    1757 H           16.5663    51.3631   -10.7299 H             1 RES     
    1758 C           16.5790    50.1695   -12.5335 C             1 RES     
    1759 H           15.8686    50.8120   -13.0538 H             1 RES     
    1760 H           16.4054    49.1313   -12.8164 H             1 RES     
    1761 C           18.0141    50.5733   -12.9196 C             1 RES     
    1762 H           18.7244    49.9308   -12.3993 H             1 RES     
    1763 H           18.1877    51.6115   -12.6367 H             1 RES     
    1764 C           18.2004    50.4179   -14.4403 C             1 RES     
    1765 H           17.4900    51.0604   -14.9606 H             1 RES     
    1766 H           18.0268    49.3797   -14.7232 H             1 RES     
    1767 C           19.6355    50.8217   -14.8264 C             1 RES     
    1768 H           20.3458    50.1792   -14.3061 H             1 RES     
    1769 H           19.8090    51.8600   -14.5435 H             1 RES     
    1770 C           19.8217    50.6664   -16.3472 C             1 RES     
    1771 H           19.1114    51.3089   -16.8675 H             1 RES     
    1772 H           19.6481    49.6281   -16.6300 H             1 RES     
    1773 C           21.2568    51.0702   -16.7332 C             1 RES     
    1774 H           21.9672    50.4277   -16.2129 H             1 RES     
    1775 H           21.4304    52.1084   -16.4503 H             1 RES     
    1776 C           21.4431    50.9148   -18.2540 C             1 RES     
    1777 H           20.7327    51.5573   -18.7743 H             1 RES     
    1778 H           21.2695    49.8766   -18.5368 H             1 RES     
    1779 C           22.8782    51.3186   -18.6400 C             1 RES     
    1780 H           23.5885    50.6761   -18.1197 H             1 RES     
    1781 H           23.0518    52.3569   -18.3572 H             1 RES     
    1782 C           23.0644    51.1633   -20.1608 C             1 RES     
    1783 H           22.3541    51.8057   -20.6811 H             1 RES     
    1784 H           22.8909    50.1250   -20.4437 H             1 RES     
    1785 C           24.4996    51.5670   -20.5468 C             1 RES     
    1786 H           25.2099    50.9246   -20.0265 H             1 RES     
    1787 H           24.6731    52.6053   -20.2640 H             1 RES     
    1788 C           24.6773    51.4188   -21.9985 C             1 RES     
    1789 H           25.0000    50.4086   -21.8558 H             1 RES     
    1790 H           25.2803    51.8832   -22.7508 H             1 RES     
    1791 H           23.6525    51.4258   -22.3080 H             1 RES     
    1792 C           10.2201    51.2885    -5.3250 C             1 RES     
    1793 O            9.3340    50.4392    -5.4051 O             1 RES     
    1794 O           10.8416    51.7493    -4.0400 O             1 RES     
    1795 C           10.7936    51.9800    -6.4375 C             1 RES     
    1796 H           11.8655    51.7860    -6.4751 H             1 RES     
    1797 H           10.6215    53.0496    -6.3171 H             1 RES     
    1798 C           10.1389    51.4992    -7.7459 C             1 RES     
    1799 H            9.0670    51.6933    -7.7082 H             1 RES     
    1800 H           10.3110    50.4296    -7.8662 H             1 RES     
    1801 C           10.7556    52.2553    -8.9374 C             1 RES     
    1802 H           11.8275    52.0612    -8.9750 H             1 RES     
    1803 H           10.5835    53.3248    -8.8170 H             1 RES     
    1804 C           10.1010    51.7744   -10.2457 C             1 RES     
    1805 H            9.0290    51.9685   -10.2081 H             1 RES     
    1806 H           10.2731    50.7048   -10.3661 H             1 RES     
    1807 C           10.7176    52.5305   -11.4372 C             1 RES     
    1808 H           11.7895    52.3364   -11.4749 H             1 RES     
    1809 H           10.5455    53.6001   -11.3169 H             1 RES     
    1810 C           10.0630    52.0496   -12.7456 C             1 RES     
    1811 H            8.9910    52.2437   -12.7079 H             1 RES     
    1812 H           10.2351    50.9801   -12.8660 H             1 RES     
    1813 C           10.6796    52.8057   -13.9371 C             1 RES     
    1814 H           11.7515    52.6116   -13.9747 H             1 RES     
    1815 H           10.5075    53.8753   -13.8167 H             1 RES     
    1816 C           10.0250    52.3248   -15.2454 C             1 RES     
    1817 H            8.9531    52.5189   -15.2078 H             1 RES     
    1818 H           10.1971    51.2553   -15.3658 H             1 RES     
    1819 C           10.6416    53.0809   -16.4369 C             1 RES     
    1820 H           11.7136    52.8869   -16.4746 H             1 RES     
    1821 H           10.4695    54.1505   -16.3166 H             1 RES     
    1822 C            9.9870    52.6001   -17.7453 C             1 RES     
    1823 H            8.9151    52.7941   -17.7077 H             1 RES     
    1824 H           10.1591    51.5305   -17.8657 H             1 RES     
    1825 C           10.6037    53.3562   -18.9368 C             1 RES     
    1826 H           11.6756    53.1621   -18.9745 H             1 RES     
    1827 H           10.4315    54.4257   -18.8164 H             1 RES     
    1828 C            9.9490    52.8753   -20.2452 C             1 RES     
    1829 H            8.8771    53.0694   -20.2075 H             1 RES     
    1830 H           10.1211    51.8057   -20.3655 H             1 RES     
    1831 C           10.5657    53.6314   -21.4367 C             1 RES     
    1832 H           11.6376    53.4373   -21.4743 H             1 RES     
    1833 H           10.3936    54.7010   -21.3163 H             1 RES     
    1834 C            9.9110    53.1505   -22.7450 C             1 RES     
    1835 H            8.8391    53.3446   -22.7074 H             1 RES     
    1836 H           10.0832    52.0809   -22.8654 H             1 RES     
    1837 C           10.5277    53.9066   -23.9365 C             1 RES     
    1838 H           11.5996    53.7125   -23.9742 H             1 RES     
    1839 H           10.3556    54.9762   -23.8162 H             1 RES     
    1840 C            9.8731    53.4257   -25.2449 C             1 RES     
    1841 H            8.8011    53.6198   -25.2073 H             1 RES     
    1842 H           10.0452    52.3562   -25.3653 H             1 RES     
    1843 C           10.4617    54.1475   -26.3822 C             1 RES     
    1844 H            9.7140    54.9069   -26.2873 H             1 RES     
    1845 H           10.6320    53.9418   -27.4185 H             1 RES     
    1846 H           11.3722    54.4845   -25.9311 H             1 RES     
    1847 N           32.8634     0.0000     5.0000 N             1 RES     
    1848 C           32.6028     1.4432     5.2163 C             1 RES     
    1849 H           33.3693     2.0770     4.7226 H             1 RES     
    1850 H           32.6310     1.6962     6.3003 H             1 RES     
    1851 H           31.6024     1.7321     4.8234 H             1 RES     
    1852 C           34.2132    -0.3409     5.5091 C             1 RES     
    1853 H           34.4446    -1.4163     5.3400 H             1 RES     
    1854 H           34.2902    -0.1418     6.6018 H             1 RES     
    1855 H           35.0022     0.2682     5.0194 H             1 RES     
    1856 C           31.8637    -0.7756     5.7732 C             1 RES     
    1857 H           31.9232    -0.5433     6.8606 H             1 RES     
    1858 H           32.0248    -1.8708     5.6540 H             1 RES     
    1859 H           30.8278    -0.5448     5.4364 H             1 RES     
    1860 C           32.7182    -0.3675     3.5586 C             1 RES     
    1861 H           31.6847    -0.1437     3.2097 H             1 RES     
    1862 H           32.8748    -1.4620     3.4260 H             1 RES     
    1863 C           33.6805     0.3432     2.5960 C             1 RES     
    1864 H           34.7426     0.0934     2.7918 H             1 RES     
    1865 H           33.5264     1.4406     2.5707 H             1 RES     
    1866 P           32.5749     0.9154     0.4318 P             1 RES     
    1867 O           32.4721     0.5149    -1.1139 O             1 RES     
    1868 O           33.6109    -0.0569     1.1676 O             1 RES     
    1869 O           33.1214     2.4182     0.4849 O             1 RES     
    1870 O           31.1165     0.7163     1.0592 O             1 RES     
    1871 C           31.5046     1.4356    -1.7631 C             1 RES     
    1872 H           31.8569     2.4622    -1.6628 H             1 RES     
    1873 H           30.5310     1.3366    -1.2830 H             1 RES     
    1874 C           32.2983    -0.1124    -3.5797 C             1 RES     
    1875 H           33.3312     0.1544    -3.3557 H             1 RES     
    1876 H           32.0052    -0.9712    -2.9759 H             1 RES     
    1877 C           31.3789     1.0799    -3.2561 C             1 RES     
    1878 H           30.3460     0.8132    -3.4801 H             1 RES     
    1879 C           33.2876     0.4771    -5.4006 C             1 RES     
    1880 O           33.9249     1.1759    -4.6142 O             1 RES     
    1881 O           32.1783    -0.4519    -5.0049 O             1 RES     
    1882 C           33.5050     0.4281    -6.8131 C             1 RES     
    1883 H           32.5944     0.7250    -7.3334 H             1 RES     
    1884 H           33.7700    -0.5907    -7.0959 H             1 RES     
    1885 C           34.6506     1.3821    -7.1991 C             1 RES     
    1886 H           35.5612     1.0852    -6.6788 H             1 RES     
    1887 H           34.3857     2.4008    -6.9162 H             1 RES     
    1888 C           34.8841     1.3162    -8.7199 C             1 RES     
    1889 H           33.9734     1.6131    -9.2402 H             1 RES     
    1890 H           35.1490     0.2974    -9.0027 H             1 RES     
    1891 C           36.0297     2.2702    -9.1059 C             1 RES     
    1892 H           36.9403     1.9733    -8.5856 H             1 RES     
    1893 H           35.7647     3.2889    -8.8231 H             1 RES     
    1894 C           36.2631     2.2043   -10.6267 C             1 RES     
    1895 H           35.3525     2.5012   -11.1470 H             1 RES     
    1896 H           36.5281     1.1855   -10.9096 H             1 RES     
    1897 C           37.4087     3.1583   -11.0127 C             1 RES     
    1898 H           38.3194     2.8614   -10.4924 H             1 RES     
    1899 H           37.1438     4.1771   -10.7299 H             1 RES     
    1900 C           37.6422     3.0924   -12.5335 C             1 RES     
    1901 H           36.7315     3.3893   -13.0538 H             1 RES     
    1902 H           37.9071     2.0736   -12.8164 H             1 RES     
    1903 C           38.7878     4.0464   -12.9196 C             1 RES     
    1904 H           39.6984     3.7495   -12.3993 H             1 RES     
    1905 H           38.5228     5.0652   -12.6367 H             1 RES     
    1906 C           39.0212     3.9805   -14.4403 C             1 RES     
    1907 H           38.1106     4.2774   -14.9606 H             1 RES     
    1908 H           39.2862     2.9618   -14.7232 H             1 RES     
    1909 C           40.1669     4.9345   -14.8264 C             1 RES     
    1910 H           41.0775     4.6376   -14.3061 H             1 RES     
    1911 H           39.9019     5.9533   -14.5435 H             1 RES     
    1912 C           40.4003     4.8686   -16.3472 C             1 RES     
    1913 H           39.4897     5.1655   -16.8675 H             1 RES     
    1914 H           40.6653     3.8499   -16.6300 H             1 RES     
    1915 C           41.5459     5.8226   -16.7332 C             1 RES     
    1916 H           42.4565     5.5257   -16.2129 H             1 RES     
    1917 H           41.2810     6.8414   -16.4503 H             1 RES     
    1918 C           41.7794     5.7567   -18.2540 C             1 RES     
    1919 H           40.8687     6.0536   -18.7743 H             1 RES     
    1920 H           42.0443     4.7380   -18.5368 H             1 RES     
    1921 C           42.9250     6.7107   -18.6400 C             1 RES     
    1922 H           43.8356     6.4138   -18.1197 H             1 RES     
    1923 H           42.6600     7.7295   -18.3572 H             1 RES     
    1924 C           43.1584     6.6449   -20.1608 C             1 RES     
    1925 H           42.2478     6.9418   -20.6811 H             1 RES     
    1926 H           43.4234     5.6261   -20.4437 H             1 RES     
    1927 C           44.3040     7.5988   -20.5468 C             1 RES     
    1928 H           45.2147     7.3019   -20.0265 H             1 RES     
    1929 H           44.0391     8.6176   -20.2640 H             1 RES     
    1930 C           44.5269     7.5360   -21.9985 C             1 RES     
    1931 H           45.2334     6.7452   -21.8558 H             1 RES     
    1932 H           44.8880     8.2059   -22.7508 H             1 RES     
    1933 H           43.5882     7.1244   -22.3080 H             1 RES     
    1934 C           31.3798     1.5206    -5.3250 C             1 RES     
    1935 O           30.9171     0.3838    -5.4051 O             1 RES     
    1936 O           31.7594     2.1949    -4.0400 O             1 RES     
    1937 C           31.6214     2.3859    -6.4375 C             1 RES     
    1938 H           32.6792     2.6459    -6.4751 H             1 RES     
    1939 H           31.0280     3.2923    -6.3171 H             1 RES     
    1940 C           31.2198     1.6799    -7.7459 C             1 RES     
    1941 H           30.1619     1.4199    -7.7082 H             1 RES     
    1942 H           31.8132     0.7735    -7.8662 H             1 RES     
    1943 C           31.4744     2.6217    -8.9374 C             1 RES     
    1944 H           32.5323     2.8817    -8.9750 H             1 RES     
    1945 H           30.8811     3.5281    -8.8170 H             1 RES     
    1946 C           31.0729     1.9157   -10.2457 C             1 RES     
    1947 H           30.0150     1.6557   -10.2081 H             1 RES     
    1948 H           31.6662     1.0093   -10.3661 H             1 RES     
    1949 C           31.3275     2.8575   -11.4372 C             1 RES     
    1950 H           32.3854     3.1175   -11.4749 H             1 RES     
    1951 H           30.7341     3.7639   -11.3169 H             1 RES     
    1952 C           30.9259     2.1515   -12.7456 C             1 RES     
    1953 H           29.8681     1.8915   -12.7079 H             1 RES     
    1954 H           31.5193     1.2451   -12.8660 H             1 RES     
    1955 C           31.1806     3.0933   -13.9371 C             1 RES     
    1956 H           32.2385     3.3533   -13.9747 H             1 RES     
    1957 H           30.5872     3.9997   -13.8167 H             1 RES     
    1958 C           30.7790     2.3873   -15.2454 C             1 RES     
    1959 H           29.7211     2.1273   -15.2078 H             1 RES     
    1960 H           31.3724     1.4809   -15.3658 H             1 RES     
    1961 C           31.0337     3.3291   -16.4369 C             1 RES     
    1962 H           32.0915     3.5891   -16.4746 H             1 RES     
    1963 H           30.4403     4.2355   -16.3166 H             1 RES     
    1964 C           30.6321     2.6231   -17.7453 C             1 RES     
    1965 H           29.5742     2.3631   -17.7077 H             1 RES     
    1966 H           31.2254     1.7167   -17.8657 H             1 RES     
    1967 C           30.8867     3.5649   -18.9368 C             1 RES     
    1968 H           31.9446     3.8249   -18.9745 H             1 RES     
    1969 H           30.2934     4.4713   -18.8164 H             1 RES     
    1970 C           30.4851     2.8589   -20.2452 C             1 RES     
    1971 H           29.4273     2.5989   -20.2075 H             1 RES     
    1972 H           31.0785     1.9525   -20.3655 H             1 RES     
    1973 C           30.7398     3.8007   -21.4367 C             1 RES     
    1974 H           31.7977     4.0607   -21.4743 H             1 RES     
    1975 H           30.1464     4.7071   -21.3163 H             1 RES     
    1976 C           30.3382     3.0947   -22.7450 C             1 RES     
    1977 H           29.2803     2.8347   -22.7074 H             1 RES     
    1978 H           30.9316     2.1883   -22.8654 H             1 RES     
    1979 C           30.5929     4.0365   -23.9365 C             1 RES     
    1980 H           31.6507     4.2965   -23.9742 H             1 RES     
    1981 H           29.9995     4.9429   -23.8162 H             1 RES     
    1982 C           30.1913     3.3305   -25.2449 C             1 RES     
    1983 H           29.1334     3.0705   -25.2073 H             1 RES     
    1984 H           30.7846     2.4241   -25.3653 H             1 RES     
    1985 C           30.4344     4.2295   -26.3822 C             1 RES     
    1986 H           29.4419     4.6180   -26.2873 H             1 RES     
    1987 H           30.6738     4.1112   -27.4185 H             1 RES     
    1988 H           31.1283     4.9086   -25.9311 H             1 RES     
    1989 N           43.8178    21.9089     5.0000 N             1 RES     
    1990 C           44.1193    23.3441     5.2163 C             1 RES     
    1991 H           45.0680    23.6430     4.7226 H             1 RES     
    1992 H           44.2407    23.5679     6.3003 H             1 RES     
    1993 H           43.3012    23.9882     4.8234 H             1 RES     
    1994 C           44.9403    21.0852     5.5091 C             1 RES     
    1995 H           44.7500    20.0018     5.3400 H             1 RES     
    1996 H           45.0864    21.2407     6.6018 H             1 RES     
    1997 H           45.9004    21.3527     5.0194 H             1 RES     
    1998 C           42.5998    21.5664     5.7732 C             1 RES     
    1999 H           42.7424    21.7592     6.8606 H             1 RES     
    2000 H           42.3370    20.4910     5.6540 H             1 RES     
    2001 H           41.7268    22.1699     5.4364 H             1 RES     
    2002 C           43.5450    21.6230     3.5586 C             1 RES     
    2003 H           42.6717    22.2192     3.2097 H             1 RES     
    2004 H           43.2784    20.5500     3.4260 H             1 RES     
    2005 C           44.7040    21.9194     2.5960 C             1 RES     
    2006 H           45.5941    21.2884     2.7918 H             1 RES     
    2007 H           44.9742    22.9942     2.5707 H             1 RES     
    2008 P           43.8949    22.8655     0.4318 P             1 RES     
    2009 O           43.6490    22.5332    -1.1139 O             1 RES     
    2010 O           44.4891    21.5750     1.1676 O             1 RES     
    2011 O           44.9667    24.0523     0.4849 O             1 RES     
    2012 O           42.4688    23.2297     1.0592 O             1 RES     
    2013 C           43.0989    23.7503    -1.7631 C             1 RES     
    2014 H           43.8116    24.5689    -1.6628 H             1 RES     
    2015 H           42.1596    24.0248    -1.2830 H             1 RES     
    2016 C           43.2520    22.0174    -3.5797 C             1 RES     
    2017 H           44.3093    21.8759    -3.3557 H             1 RES     
    2018 H           42.6573    21.3319    -2.9759 H             1 RES     
    2019 C           42.8487    23.4680    -3.2561 C             1 RES     
    2020 H           41.7913    23.6094    -3.4801 H             1 RES     
    2021 C           44.3904    22.1913    -5.4006 C             1 RES     
    2022 O           45.2438    22.5990    -4.6142 O             1 RES     
    2023 O           43.0131    21.7479    -5.0049 O             1 RES     
    2024 C           44.5733    22.0641    -6.8131 C             1 RES     
    2025 H           43.8413    22.6818    -7.3334 H             1 RES     
    2026 H           44.4356    21.0205    -7.0959 H             1 RES     
    2027 C           45.9937    22.5170    -7.1991 C             1 RES     
    2028 H           46.7257    21.8994    -6.6788 H             1 RES     
    2029 H           46.1315    23.5606    -6.9162 H             1 RES     
    2030 C           46.1852    22.3682    -8.7199 C             1 RES     
    2031 H           45.4532    22.9859    -9.2402 H             1 RES     
    2032 H           46.0474    21.3246    -9.0027 H             1 RES     
    2033 C           47.6056    22.8211    -9.1059 C             1 RES     
    2034 H           48.3376    22.2034    -8.5856 H             1 RES     
    2035 H           47.7433    23.8647    -8.8231 H             1 RES     
    2036 C           47.7971    22.6722   -10.6267 C             1 RES     
    2037 H           47.0651    23.2899   -11.1470 H             1 RES     
    2038 H           47.6593    21.6286   -10.9096 H             1 RES     
    2039 C           49.2174    23.1251   -11.0127 C             1 RES     
    2040 H           49.9495    22.5075   -10.4924 H             1 RES     
    2041 H           49.3552    24.1687   -10.7299 H             1 RES     
    2042 C           49.4089    22.9763   -12.5335 C             1 RES     
    2043 H           48.6769    23.5940   -13.0538 H             1 RES     
    2044 H           49.2712    21.9327   -12.8164 H             1 RES     
    2045 C           50.8293    23.4292   -12.9196 C             1 RES     
    2046 H           51.5613    22.8115   -12.3993 H             1 RES     
    2047 H           50.9671    24.4728   -12.6367 H             1 RES     
    2048 C           51.0208    23.2803   -14.4403 C             1 RES     
    2049 H           50.2888    23.8980   -14.9606 H             1 RES     
    2050 H           50.8830    22.2367   -14.7232 H             1 RES     
    2051 C           52.4412    23.7332   -14.8264 C             1 RES     
    2052 H           53.1732    23.1156   -14.3061 H             1 RES     
    2053 H           52.5789    24.7768   -14.5435 H             1 RES     
    2054 C           52.6327    23.5844   -16.3472 C             1 RES     
    2055 H           51.9006    24.2021   -16.8675 H             1 RES     
    2056 H           52.4949    22.5408   -16.6300 H             1 RES     
    2057 C           54.0530    24.0373   -16.7332 C             1 RES     
    2058 H           54.7851    23.4196   -16.2129 H             1 RES     
    2059 H           54.1908    25.0809   -16.4503 H             1 RES     
    2060 C           54.2445    23.8884   -18.2540 C             1 RES     
    2061 H           53.5125    24.5061   -18.7743 H             1 RES     
    2062 H           54.1068    22.8448   -18.5368 H             1 RES     
    2063 C           55.6649    24.3413   -18.6400 C             1 RES     
    2064 H           56.3969    23.7236   -18.1197 H             1 RES     
    2065 H           55.8027    25.3849   -18.3572 H             1 RES     
    2066 C           55.8564    24.1925   -20.1608 C             1 RES     
    2067 H           55.1244    24.8102   -20.6811 H             1 RES     
    2068 H           55.7186    23.1489   -20.4437 H             1 RES     
    2069 C           57.2768    24.6454   -20.5468 C             1 RES     
    2070 H           58.0088    24.0277   -20.0265 H             1 RES     
    2071 H           57.4145    25.6890   -20.2640 H             1 RES     
    2072 C           57.4596    24.5033   -21.9985 C             1 RES     
    2073 H           57.8167    23.5048   -21.8558 H             1 RES     
    2074 H           58.0462    24.9882   -22.7508 H             1 RES     
    2075 H           56.4350    24.4751   -22.3080 H             1 RES     
    2076 C           43.0153    23.8760    -5.3250 C             1 RES     
    2077 O           42.1589    22.9967    -5.4051 O             1 RES     
    2078 O           43.6207    24.3578    -4.0400 O             1 RES     
    2079 C           43.5647    24.5868    -6.4375 C             1 RES     
    2080 H           44.6426    24.4297    -6.4751 H             1 RES     
    2081 H           43.3559    25.6498    -6.3171 H             1 RES     
    2082 C           42.9270    24.0837    -7.7459 C             1 RES     
    2083 H           41.8490    24.2408    -7.7082 H             1 RES     
    2084 H           43.1358    23.0207    -7.8662 H             1 RES     
    2085 C           43.5173    24.8606    -8.9374 C             1 RES     
    2086 H           44.5952    24.7035    -8.9750 H             1 RES     
    2087 H           43.3085    25.9236    -8.8170 H             1 RES     
    2088 C           42.8795    24.3575   -10.2457 C             1 RES     
    2089 H           41.8016    24.5146   -10.2081 H             1 RES     
    2090 H           43.0883    23.2944   -10.3661 H             1 RES     
    2091 C           43.4698    25.1343   -11.4372 C             1 RES     
    2092 H           44.5478    24.9772   -11.4749 H             1 RES     
    2093 H           43.2610    26.1973   -11.3169 H             1 RES     
    2094 C           42.8321    24.6312   -12.7456 C             1 RES     
    2095 H           41.7542    24.7883   -12.7079 H             1 RES     
    2096 H           43.0409    23.5682   -12.8660 H             1 RES     
    2097 C           43.4224    25.4081   -13.9371 C             1 RES     
    2098 H           44.5004    25.2510   -13.9747 H             1 RES     
    2099 H           43.2136    26.4711   -13.8167 H             1 RES     
    2100 C           42.7847    24.9050   -15.2454 C             1 RES     
    2101 H           41.7067    25.0621   -15.2078 H             1 RES     
    2102 H           42.9935    23.8419   -15.3658 H             1 RES     
    2103 C           43.3750    25.6818   -16.4369 C             1 RES     
    2104 H           44.4529    25.5247   -16.4746 H             1 RES     
    2105 H           43.1662    26.7448   -16.3166 H             1 RES     
    2106 C           42.7373    25.1787   -17.7453 C             1 RES     
    2107 H           41.6593    25.3358   -17.7077 H             1 RES     
    2108 H           42.9461    24.1157   -17.8657 H             1 RES     
    2109 C           43.3276    25.9556   -18.9368 C             1 RES     
    2110 H           44.4055    25.7985   -18.9745 H             1 RES     
    2111 H           43.1188    27.0186   -18.8164 H             1 RES     
    2112 C           42.6898    25.4525   -20.2452 C             1 RES     
    2113 H           41.6119    25.6096   -20.2075 H             1 RES     
    2114 H           42.8986    24.3894   -20.3655 H             1 RES     
    2115 C           43.2801    26.2293   -21.4367 C             1 RES     
    2116 H           44.3581    26.0722   -21.4743 H             1 RES     
    2117 H           43.0713    27.2923   -21.3163 H             1 RES     
    2118 C           42.6424    25.7262   -22.7450 C             1 RES     
    2119 H           41.5645    25.8833   -22.7074 H             1 RES     
    2120 H           42.8512    24.6632   -22.8654 H             1 RES     
    2121 C           43.2327    26.5031   -23.9365 C             1 RES     
    2122 H           44.3107    26.3460   -23.9742 H             1 RES     
    2123 H           43.0239    27.5661   -23.8162 H             1 RES     
    2124 C           42.5950    26.0000   -25.2449 C             1 RES     
    2125 H           41.5170    26.1571   -25.2073 H             1 RES     
    2126 H           42.8038    24.9370   -25.3653 H             1 RES     
    2127 C           43.1585    26.7415   -26.3822 C             1 RES     
    2128 H           42.3851    27.4748   -26.2873 H             1 RES     
    2129 H           43.3358    26.5418   -27.4185 H             1 RES     
    2130 H           44.0569    27.1097   -25.9311 H             1 RES     
    2131 N           16.4317     0.0000     5.0000 N             1 RES     
    2132 C           16.7834     1.4237     5.2163 C             1 RES     
    2133 H           17.7420     1.6891     4.7226 H             1 RES     
    2134 H           16.9126     1.6432     6.3003 H             1 RES     
    2135 H           15.9884     2.0961     4.8234 H             1 RES     
    2136 C           17.5245    -0.8626     5.5091 C             1 RES     
    2137 H           17.2963    -1.9386     5.3400 H             1 RES     
    2138 H           17.6761    -0.7123     6.6018 H             1 RES     
    2139 H           18.4935    -0.6290     5.0194 H             1 RES     
    2140 C           15.2024    -0.2995     5.7732 C             1 RES     
    2141 H           15.3516    -0.1118     6.8606 H             1 RES     
    2142 H           14.9020    -1.3650     5.6540 H             1 RES     
    2143 H           14.3511     0.3343     5.4364 H             1 RES     
    2144 C           16.1490    -0.2761     3.5586 C             1 RES     
    2145 H           15.2972     0.3504     3.2097 H             1 RES     
    2146 H           15.8448    -1.3391     3.4260 H             1 RES     
    2147 C           17.3177    -0.0206     2.5960 C             1 RES     
    2148 H           18.1851    -0.6825     2.7918 H             1 RES     
    2149 H           17.6254     1.0440     2.5707 H             1 RES     
    2150 P           16.5423     0.9533     0.4318 P             1 RES     
    2151 O           16.2849     0.6298    -1.1139 O             1 RES     
    2152 O           17.0908    -0.3573     1.1676 O             1 RES     
    2153 O           17.6551     2.1018     0.4849 O             1 RES     
    2154 O           15.1299     1.3674     1.0592 O             1 RES     
    2155 C           15.7779     1.8655    -1.7631 C             1 RES     
    2156 H           16.5190     2.6585    -1.6628 H             1 RES     
    2157 H           14.8488     2.1728    -1.2830 H             1 RES     
    2158 C           15.8700     0.1283    -3.5797 C             1 RES     
    2159 H           16.9217    -0.0502    -3.3557 H             1 RES     
    2160 H           15.2516    -0.5359    -2.9759 H             1 RES     
    2161 C           15.5179     1.5921    -3.2561 C             1 RES     
    2162 H           14.4662     1.7706    -3.4801 H             1 RES     
    2163 C           17.0138     0.2621    -5.4006 C             1 RES     
    2164 O           17.8810     0.6396    -4.6142 O             1 RES     
    2165 O           15.6218    -0.1326    -5.0049 O             1 RES     
    2166 C           17.1922     0.1286    -6.8131 C             1 RES     
    2167 H           16.4823     0.7716    -7.3334 H             1 RES     
    2168 H           17.0179    -0.9095    -7.0959 H             1 RES     
    2169 C           18.6276     0.5313    -7.1991 C             1 RES     
    2170 H           19.3375    -0.1117    -6.6788 H             1 RES     
    2171 H           18.8019     1.5695    -6.9162 H             1 RES     
    2172 C           18.8138     0.3758    -8.7199 C             1 RES     
    2173 H           18.1039     1.0189    -9.2402 H             1 RES     
    2174 H           18.6394    -0.6623    -9.0027 H             1 RES     
    2175 C           20.2492     0.7786    -9.1059 C             1 RES     
    2176 H           20.9590     0.1356    -8.5856 H             1 RES     
    2177 H           20.4235     1.8167    -8.8231 H             1 RES     
    2178 C           20.4353     0.6231   -10.6267 C             1 RES     
    2179 H           19.7254     1.2661   -11.1470 H             1 RES     
    2180 H           20.2610    -0.4150   -10.9096 H             1 RES     
    2181 C           21.8707     1.0258   -11.0127 C             1 RES     
    2182 H           22.5806     0.3828   -10.4924 H             1 RES     
    2183 H           22.0450     2.0639   -10.7299 H             1 RES     
    2184 C           22.0569     0.8703   -12.5335 C             1 RES     
    2185 H           21.3470     1.5133   -13.0538 H             1 RES     
    2186 H           21.8825    -0.1678   -12.8164 H             1 RES     
    2187 C           23.4923     1.2731   -12.9196 C             1 RES     
    2188 H           24.2021     0.6300   -12.3993 H             1 RES     
    2189 H           23.6666     2.3112   -12.6367 H             1 RES     
    2190 C           23.6784     1.1176   -14.4403 C             1 RES     
    2191 H           22.9685     1.7606   -14.9606 H             1 RES     
    2192 H           23.5041     0.0794   -14.7232 H             1 RES     
    2193 C           25.1138     1.5203   -14.8264 C             1 RES     
    2194 H           25.8237     0.8773   -14.3061 H             1 RES     
    2195 H           25.2881     2.5584   -14.5435 H             1 RES     
    2196 C           25.3000     1.3648   -16.3472 C             1 RES     
    2197 H           24.5901     2.0078   -16.8675 H             1 RES     
    2198 H           25.1256     0.3267   -16.6300 H             1 RES     
    2199 C           26.7354     1.7675   -16.7332 C             1 RES     
    2200 H           27.4452     1.1245   -16.2129 H             1 RES     
    2201 H           26.9097     2.8057   -16.4503 H             1 RES     
    2202 C           26.9215     1.6120   -18.2540 C             1 RES     
    2203 H           26.2116     2.2551   -18.7743 H             1 RES     
    2204 H           26.7472     0.5739   -18.5368 H             1 RES     
    2205 C           28.3569     2.0148   -18.6400 C             1 RES     
    2206 H           29.0668     1.3718   -18.1197 H             1 RES     
    2207 H           28.5312     3.0529   -18.3572 H             1 RES     
    2208 C           28.5430     1.8593   -20.1608 C             1 RES     
    2209 H           27.8332     2.5023   -20.6811 H             1 RES     
    2210 H           28.3687     0.8212   -20.4437 H             1 RES     
    2211 C           29.9785     2.2620   -20.5468 C             1 RES     
    2212 H           30.6883     1.6190   -20.0265 H             1 RES     
    2213 H           30.1528     3.3001   -20.2640 H             1 RES     
    2214 C           30.1561     2.1136   -21.9985 C             1 RES     
    2215 H           30.4780     1.1032   -21.8558 H             1 RES     
    2216 H           30.7594     2.5776   -22.7508 H             1 RES     
    2217 H           29.1313     2.1215   -22.3080 H             1 RES     
    2218 C           15.6988     1.9940    -5.3250 C             1 RES     
    2219 O           14.8120     1.1454    -5.4051 O             1 RES     
    2220 O           16.3207     2.4544    -4.0400 O             1 RES     
    2221 C           16.2728     2.6851    -6.4375 C             1 RES     
    2222 H           17.3446     2.4903    -6.4751 H             1 RES     
    2223 H           16.1015     3.7548    -6.3171 H             1 RES     
    2224 C           15.6178     2.2048    -7.7459 C             1 RES     
    2225 H           14.5460     2.3996    -7.7082 H             1 RES     
    2226 H           15.7891     1.1351    -7.8662 H             1 RES     
    2227 C           16.2350     2.9604    -8.9374 C             1 RES     
    2228 H           17.3068     2.7655    -8.9750 H             1 RES     
    2229 H           16.0637     4.0301    -8.8170 H             1 RES     
    2230 C           15.5800     2.4800   -10.2457 C             1 RES     
    2231 H           14.5082     2.6749   -10.2081 H             1 RES     
    2232 H           15.7513     1.4103   -10.3661 H             1 RES     
    2233 C           16.1972     3.2356   -11.4372 C             1 RES     
    2234 H           17.2690     3.0408   -11.4749 H             1 RES     
    2235 H           16.0259     4.3053   -11.3169 H             1 RES     
    2236 C           15.5422     2.7553   -12.7456 C             1 RES     
    2237 H           14.4704     2.9501   -12.7079 H             1 RES     
    2238 H           15.7136     1.6856   -12.8660 H             1 RES     
    2239 C           16.1594     3.5109   -13.9371 C             1 RES     
    2240 H           17.2312     3.3160   -13.9747 H             1 RES     
    2241 H           15.9881     4.5806   -13.8167 H             1 RES     
    2242 C           15.5044     3.0305   -15.2454 C             1 RES     
    2243 H           14.4327     3.2254   -15.2078 H             1 RES     
    2244 H           15.6758     1.9608   -15.3658 H             1 RES     
    2245 C           16.1217     3.7861   -16.4369 C             1 RES     
    2246 H           17.1934     3.5913   -16.4746 H             1 RES     
    2247 H           15.9503     4.8558   -16.3166 H             1 RES     
    2248 C           15.4667     3.3058   -17.7453 C             1 RES     
    2249 H           14.3949     3.5006   -17.7077 H             1 RES     
    2250 H           15.6380     2.2361   -17.8657 H             1 RES     
    2251 C           16.0839     4.0614   -18.9368 C             1 RES     
    2252 H           17.1557     3.8665   -18.9745 H             1 RES     
    2253 H           15.9126     5.1311   -18.8164 H             1 RES     
    2254 C           15.4289     3.5810   -20.2452 C             1 RES     
    2255 H           14.3571     3.7759   -20.2075 H             1 RES     
    2256 H           15.6002     2.5113   -20.3655 H             1 RES     
    2257 C           16.0461     4.3366   -21.4367 C             1 RES     
    2258 H           17.1179     4.1418   -21.4743 H             1 RES     
    2259 H           15.8748     5.4063   -21.3163 H             1 RES     
    2260 C           15.3911     3.8563   -22.7450 C             1 RES     
    2261 H           14.3193     4.0511   -22.7074 H             1 RES     
    2262 H           15.5624     2.7866   -22.8654 H             1 RES     
    2263 C           16.0083     4.6119   -23.9365 C             1 RES     
    2264 H           17.0801     4.4170   -23.9742 H             1 RES     
    2265 H           15.8370     5.6816   -23.8162 H             1 RES     
    2266 C           15.3533     4.1315   -25.2449 C             1 RES     
    2267 H           14.2815     4.3264   -25.2073 H             1 RES     
    2268 H           15.5247     3.0618   -25.3653 H             1 RES     
    2269 C           15.9425     4.8528   -26.3822 C             1 RES     
    2270 H           15.1953     5.6128   -26.2873 H             1 RES     
    2271 H           16.1127     4.6470   -27.4185 H             1 RES     
    2272 H           16.8533     5.1892   -25.9311 H             1 RES     
    2273 N            5.4772    10.9545     5.0000 N             1 RES     
    2274 C            5.7352    12.3981     5.2163 C             1 RES     
    2275 H            6.6745    12.7255     4.7226 H             1 RES     
    2276 H            5.8498    12.6255     6.3003 H             1 RES     
    2277 H            4.8981    13.0172     4.8234 H             1 RES     
    2278 C            6.6240    10.1650     5.5091 C             1 RES     
    2279 H            6.4666     9.0764     5.3400 H             1 RES     
    2280 H            6.7654    10.3249     6.6018 H             1 RES     
    2281 H            7.5757    10.4614     5.0194 H             1 RES     
    2282 C            4.2701    10.5754     5.7732 C             1 RES     
    2283 H            4.4068    10.7723     6.8606 H             1 RES     
    2284 H            4.0399     9.4925     5.6540 H             1 RES     
    2285 H            3.3793    11.1522     5.4364 H             1 RES     
    2286 C            5.2132    10.6605     3.5586 C             1 RES     
    2287 H            4.3223    11.2300     3.2097 H             1 RES     
    2288 H            4.9791     9.5799     3.4260 H             1 RES     
    2289 C            6.3627    10.9917     2.5960 C             1 RES     
    2290 H            7.2714    10.3879     2.7918 H             1 RES     
    2291 H            6.6003    12.0742     2.5707 H             1 RES     
    2292 P            5.5254    11.9130     0.4318 P             1 RES     
    2293 O            5.2897    11.5734    -1.1139 O             1 RES     
    2294 O            6.1583    10.6409     1.1676 O             1 RES     
    2295 O            6.5609    13.1316     0.4849 O             1 RES     
    2296 O            4.0890    12.2339     1.0592 O             1 RES     
    2297 C            4.7031    12.7733    -1.7631 C             1 RES     
    2298 H            5.3908    13.6130    -1.6628 H             1 RES     
    2299 H            3.7559    13.0193    -1.2830 H             1 RES     
    2300 C            4.9084    11.0458    -3.5797 C             1 RES     
    2301 H            5.9695    10.9363    -3.3557 H             1 RES     
    2302 H            4.3347    10.3427    -2.9759 H             1 RES     
    2303 C            4.4615    12.4835    -3.2561 C             1 RES     
    2304 H            3.4004    12.5930    -3.4801 H             1 RES     
    2305 C            6.0410    11.2540    -5.4006 C             1 RES     
    2306 O            6.8817    11.6873    -4.6142 O             1 RES     
    2307 O            4.6777    10.7692    -5.0049 O             1 RES     
    2308 C            6.2277    11.1324    -6.8131 C             1 RES     
    2309 H            5.4774    11.7277    -7.3334 H             1 RES     
    2310 H            6.1215    10.0851    -7.0959 H             1 RES     
    2311 C            7.6338    11.6280    -7.1991 C             1 RES     
    2312 H            8.3841    11.0327    -6.6788 H             1 RES     
    2313 H            7.7400    12.6753    -6.9162 H             1 RES     
    2314 C            7.8297    11.4850    -8.7199 C             1 RES     
    2315 H            7.0794    12.0803    -9.2402 H             1 RES     
    2316 H            7.7235    10.4377    -9.0027 H             1 RES     
    2317 C            9.2357    11.9805    -9.1059 C             1 RES     
    2318 H            9.9861    11.3852    -8.5856 H             1 RES     
    2319 H            9.3419    13.0278    -8.8231 H             1 RES     
    2320 C            9.4316    11.8375   -10.6267 C             1 RES     
    2321 H            8.6813    12.4328   -11.1470 H             1 RES     
    2322 H            9.3254    10.7902   -10.9096 H             1 RES     
    2323 C           10.8377    12.3331   -11.0127 C             1 RES     
    2324 H           11.5880    11.7378   -10.4924 H             1 RES     
    2325 H           10.9439    13.3804   -10.7299 H             1 RES     
    2326 C           11.0336    12.1901   -12.5335 C             1 RES     
    2327 H           10.2833    12.7854   -13.0538 H             1 RES     
    2328 H           10.9274    11.1428   -12.8164 H             1 RES     
    2329 C           12.4396    12.6857   -12.9196 C             1 RES     
    2330 H           13.1900    12.0904   -12.3993 H             1 RES     
    2331 H           12.5459    13.7330   -12.6367 H             1 RES     
    2332 C           12.6355    12.5427   -14.4403 C             1 RES     
    2333 H           11.8852    13.1380   -14.9606 H             1 RES     
    2334 H           12.5293    11.4954   -14.7232 H             1 RES     
    2335 C           14.0416    13.0382   -14.8264 C             1 RES     
    2336 H           14.7919    12.4429   -14.3061 H             1 RES     
    2337 H           14.1478    14.0855   -14.5435 H             1 RES     
    2338 C           14.2375    12.8952   -16.3472 C             1 RES     
    2339 H           13.4872    13.4905   -16.8675 H             1 RES     
    2340 H           14.1313    11.8479   -16.6300 H             1 RES     
    2341 C           15.6436    13.3908   -16.7332 C             1 RES     
    2342 H           16.3939    12.7955   -16.2129 H             1 RES     
    2343 H           15.7498    14.4381   -16.4503 H             1 RES     
    2344 C           15.8395    13.2478   -18.2540 C             1 RES     
    2345 H           15.0891    13.8431   -18.7743 H             1 RES     
    2346 H           15.7332    12.2005   -18.5368 H             1 RES     
    2347 C           17.2455    13.7433   -18.6400 C             1 RES     
    2348 H           17.9958    13.1480   -18.1197 H             1 RES     
    2349 H           17.3517    14.7906   -18.3572 H             1 RES     
    2350 C           17.4414    13.6003   -20.1608 C             1 RES     
    2351 H           16.6911    14.1956   -20.6811 H             1 RES     
    2352 H           17.3352    12.5530   -20.4437 H             1 RES     
    2353 C           18.8475    14.0959   -20.5468 C             1 RES     
    2354 H           19.5978    13.5006   -20.0265 H             1 RES     
    2355 H           18.9537    15.1432   -20.2640 H             1 RES     
    2356 C           19.0345    13.9594   -21.9985 C             1 RES     
    2357 H           19.4216    12.9721   -21.8558 H             1 RES     
    2358 H           19.6062    14.4618   -22.7508 H             1 RES     
    2359 H           18.0112    13.9003   -22.3080 H             1 RES     
    2360 C            4.6157    12.8964    -5.3250 C             1 RES     
    2361 O            3.7863    11.9917    -5.4051 O             1 RES     
    2362 O            5.2063    13.3963    -4.0400 O             1 RES     
    2363 C            5.1434    13.6235    -6.4375 C             1 RES     
    2364 H            6.2256    13.4990    -6.4751 H             1 RES     
    2365 H            4.9026    14.6797    -6.3171 H             1 RES     
    2366 C            4.5212    13.1014    -7.7459 C             1 RES     
    2367 H            3.4389    13.2259    -7.7082 H             1 RES     
    2368 H            4.7619    12.0451    -7.8662 H             1 RES     
    2369 C            5.0877    13.8957    -8.9374 C             1 RES     
    2370 H            6.1699    13.7712    -8.9750 H             1 RES     
    2371 H            4.8469    14.9519    -8.8170 H             1 RES     
    2372 C            4.4655    13.3736   -10.2457 C             1 RES     
    2373 H            3.3833    13.4981   -10.2081 H             1 RES     
    2374 H            4.7063    12.3173   -10.3661 H             1 RES     
    2375 C            5.0321    14.1679   -11.4372 C             1 RES     
    2376 H            6.1143    14.0434   -11.4749 H             1 RES     
    2377 H            4.7913    15.2241   -11.3169 H             1 RES     
    2378 C            4.4098    13.6458   -12.7456 C             1 RES     
    2379 H            3.3276    13.7703   -12.7079 H             1 RES     
    2380 H            4.6506    12.5895   -12.8660 H             1 RES     
    2381 C            4.9764    14.4401   -13.9371 C             1 RES     
    2382 H            6.0586    14.3156   -13.9747 H             1 RES     
    2383 H            4.7356    15.4963   -13.8167 H             1 RES     
    2384 C            4.3542    13.9180   -15.2454 C             1 RES     
    2385 H            3.2719    14.0425   -15.2078 H             1 RES     
    2386 H            4.5949    12.8617   -15.3658 H             1 RES     
    2387 C            4.9207    14.7123   -16.4369 C             1 RES     
    2388 H            6.0029    14.5878   -16.4746 H             1 RES     
    2389 H            4.6800    15.7685   -16.3166 H             1 RES     
    2390 C            4.2985    14.1902   -17.7453 C             1 RES     
    2391 H            3.2163    14.3146   -17.7077 H             1 RES     
    2392 H            4.5393    13.1339   -17.8657 H             1 RES     
    2393 C            4.8651    14.9845   -18.9368 C             1 RES     
    2394 H            5.9473    14.8600   -18.9745 H             1 RES     
    2395 H            4.6243    16.0407   -18.8164 H             1 RES     
    2396 C            4.2428    14.4624   -20.2452 C             1 RES     
    2397 H            3.1606    14.5868   -20.2075 H             1 RES     
    2398 H            4.4836    13.4061   -20.3655 H             1 RES     
    2399 C            4.8094    15.2567   -21.4367 C             1 RES     
    2400 H            5.8916    15.1322   -21.4743 H             1 RES     
    2401 H            4.5686    16.3129   -21.3163 H             1 RES     
    2402 C            4.1872    14.7346   -22.7450 C             1 RES     
    2403 H            3.1050    14.8590   -22.7074 H             1 RES     
    2404 H            4.4279    13.6783   -22.8654 H             1 RES     
    2405 C            4.7537    15.5289   -23.9365 C             1 RES     
    2406 H            5.8359    15.4044   -23.9742 H             1 RES     
    2407 H            4.5130    16.5851   -23.8162 H             1 RES     
    2408 C            4.1315    15.0068   -25.2449 C             1 RES     
    2409 H            3.0493    15.1312   -25.2073 H             1 RES     
    2410 H            4.3723    13.9505   -25.3653 H             1 RES     
    2411 C            4.6723    15.7650   -26.3822 C             1 RES     
    2412 H            3.8772    16.4746   -26.2873 H             1 RES     
    2413 H            4.8556    15.5707   -27.4185 H             1 RES     
    2414 H            5.5592    16.1601   -25.9311 H             1 RES     
    2415 N           10.9545    27.3861     5.0000 N             1 RES     
    2416 C           11.0227    28.8510     5.2163 C             1 RES     
    2417 H           11.9115    29.2977     4.7226 H             1 RES     
    2418 H           11.1068    29.0914     6.3003 H             1 RES     
    2419 H           10.1122    29.3561     4.8234 H             1 RES     
    2420 C           12.1941    26.7524     5.5091 C             1 RES     
    2421 H           12.1794    25.6525     5.3400 H             1 RES     
    2422 H           12.3135    26.9293     6.6018 H             1 RES     
    2423 H           13.0992    27.1699     5.0194 H             1 RES     
    2424 C            9.8068    26.8534     5.7732 C             1 RES     
    2425 H            9.9167    27.0665     6.8606 H             1 RES     
    2426 H            9.7193    25.7498     5.6540 H             1 RES     
    2427 H            8.8486    27.3097     5.4364 H             1 RES     
    2428 C           10.7309    27.0603     3.5586 C             1 RES     
    2429 H            9.7735    27.5093     3.2097 H             1 RES     
    2430 H           10.6391    25.9585     3.4260 H             1 RES     
    2431 C           11.8276    27.5381     2.5960 C             1 RES     
    2432 H           12.8071    27.0575     2.7918 H             1 RES     
    2433 H           11.9225    28.6423     2.5707 H             1 RES     
    2434 P           10.8777    28.3428     0.4318 P             1 RES     
    2435 O           10.6881    27.9754    -1.1139 O             1 RES     
    2436 O           11.6705    27.1638     1.1676 O             1 RES     
    2437 O           11.7461    29.6856     0.4849 O             1 RES     
    2438 O            9.4117    28.4744     1.0592 O             1 RES     
    2439 C            9.9506    29.0890    -1.7631 C             1 RES     
    2440 H           10.5234    30.0109    -1.6628 H             1 RES     
    2441 H            8.9795    29.2099    -1.2830 H             1 RES     
    2442 C           10.3786    27.4028    -3.5797 C             1 RES     
    2443 H           11.4449    27.4321    -3.3557 H             1 RES     
    2444 H            9.9011    26.6311    -2.9759 H             1 RES     
    2445 C            9.7486    28.7703    -3.2561 C             1 RES     
    2446 H            8.6823    28.7410    -3.4801 H             1 RES     
    2447 C           11.4745    27.7564    -5.4006 C             1 RES     
    2448 O           12.2518    28.2952    -4.6142 O             1 RES     
    2449 O           10.1858    27.0986    -5.0049 O             1 RES     
    2450 C           11.6755    27.6601    -6.8131 C             1 RES     
    2451 H           10.8542    28.1529    -7.3334 H             1 RES     
    2452 H           11.7062    26.6079    -7.0959 H             1 RES     
    2453 C           13.0052    28.3341    -7.1991 C             1 RES     
    2454 H           13.8266    27.8413    -6.6788 H             1 RES     
    2455 H           12.9745    29.3863    -6.9162 H             1 RES     
    2456 C           13.2181    28.2178    -8.7199 C             1 RES     
    2457 H           12.3967    28.7106    -9.2402 H             1 RES     
    2458 H           13.2488    27.1656    -9.0027 H             1 RES     
    2459 C           14.5478    28.8918    -9.1059 C             1 RES     
    2460 H           15.3691    28.3990    -8.5856 H             1 RES     
    2461 H           14.5171    29.9440    -8.8231 H             1 RES     
    2462 C           14.7606    28.7755   -10.6267 C             1 RES     
    2463 H           13.9393    29.2683   -11.1470 H             1 RES     
    2464 H           14.7914    27.7233   -10.9096 H             1 RES     
    2465 C           16.0904    29.4495   -11.0127 C             1 RES     
    2466 H           16.9117    28.9567   -10.4924 H             1 RES     
    2467 H           16.0596    30.5017   -10.7299 H             1 RES     
    2468 C           16.3032    29.3332   -12.5335 C             1 RES     
    2469 H           15.4819    29.8259   -13.0538 H             1 RES     
    2470 H           16.3340    28.2810   -12.8164 H             1 RES     
    2471 C           17.6330    30.0072   -12.9196 C             1 RES     
    2472 H           18.4543    29.5144   -12.3993 H             1 RES     
    2473 H           17.6022    31.0594   -12.6367 H             1 RES     
    2474 C           17.8458    29.8909   -14.4403 C             1 RES     
    2475 H           17.0245    30.3836   -14.9606 H             1 RES     
    2476 H           17.8765    28.8386   -14.7232 H             1 RES     
    2477 C           19.1755    30.5649   -14.8264 C             1 RES     
    2478 H           19.9968    30.0721   -14.3061 H             1 RES     
    2479 H           19.1448    31.6171   -14.5435 H             1 RES     
    2480 C           19.3883    30.4485   -16.3472 C             1 RES     
    2481 H           18.5670    30.9413   -16.8675 H             1 RES     
    2482 H           19.4191    29.3963   -16.6300 H             1 RES     
    2483 C           20.7181    31.1226   -16.7332 C             1 RES     
    2484 H           21.5394    30.6298   -16.2129 H             1 RES     
    2485 H           20.6873    32.1748   -16.4503 H             1 RES     
    2486 C           20.9309    31.0062   -18.2540 C             1 RES     
    2487 H           20.1096    31.4990   -18.7743 H             1 RES     
    2488 H           20.9617    29.9540   -18.5368 H             1 RES     
    2489 C           22.2607    31.6803   -18.6400 C             1 RES     
    2490 H           23.0820    31.1875   -18.1197 H             1 RES     
    2491 H           22.2299    32.7325   -18.3572 H             1 RES     
    2492 C           22.4735    31.5639   -20.1608 C             1 RES     
    2493 H           21.6522    32.0567   -20.6811 H             1 RES     
    2494 H           22.5042    30.5117   -20.4437 H             1 RES     
    2495 C           23.8032    32.2380   -20.5468 C             1 RES     
    2496 H           24.6246    31.7452   -20.0265 H             1 RES     
    2497 H           23.7725    33.2902   -20.2640 H             1 RES     
    2498 C           24.0064    32.1269   -21.9985 C             1 RES     
    2499 H           24.5185    31.1983   -21.8558 H             1 RES     
    2500 H           24.5080    32.6993   -22.7508 H             1 RES     
    2501 H           22.9995    31.9354   -22.3080 H             1 RES     
    2502 C            9.8480    29.1997    -5.3250 C             1 RES     
    2503 O            9.1431    28.1949    -5.4051 O             1 RES     
    2504 O           10.3685    29.7721    -4.0400 O             1 RES     
    2505 C           10.2767    29.9892    -6.4375 C             1 RES     
    2506 H           11.3659    30.0063    -6.4751 H             1 RES     
    2507 H            9.9007    31.0052    -6.3171 H             1 RES     
    2508 C            9.7276    29.3906    -7.7459 C             1 RES     
    2509 H            8.6384    29.3735    -7.7082 H             1 RES     
    2510 H           10.1035    28.3746    -7.8662 H             1 RES     
    2511 C           10.1861    30.2518    -8.9374 C             1 RES     
    2512 H           11.2754    30.2690    -8.9750 H             1 RES     
    2513 H            9.8102    31.2678    -8.8170 H             1 RES     
    2514 C            9.6370    29.6533   -10.2457 C             1 RES     
    2515 H            8.5478    29.6361   -10.2081 H             1 RES     
    2516 H           10.0130    28.6373   -10.3661 H             1 RES     
    2517 C           10.0956    30.5145   -11.4372 C             1 RES     
    2518 H           11.1848    30.5317   -11.4749 H             1 RES     
    2519 H            9.7196    31.5305   -11.3169 H             1 RES     
    2520 C            9.5465    29.9160   -12.7456 C             1 RES     
    2521 H            8.4572    29.8988   -12.7079 H             1 RES     
    2522 H            9.9224    28.9000   -12.8660 H             1 RES     
    2523 C           10.0050    30.7771   -13.9371 C             1 RES     
    2524 H           11.0942    30.7943   -13.9747 H             1 RES     
    2525 H            9.6291    31.7932   -13.8167 H             1 RES     
    2526 C            9.4559    30.1786   -15.2454 C             1 RES     
    2527 H            8.3667    30.1615   -15.2078 H             1 RES     
    2528 H            9.8319    29.1626   -15.3658 H             1 RES     
    2529 C            9.9145    31.0398   -16.4369 C             1 RES     
    2530 H           11.0037    31.0570   -16.4746 H             1 RES     
    2531 H            9.5385    32.0558   -16.3166 H             1 RES     
    2532 C            9.3653    30.4413   -17.7453 C             1 RES     
    2533 H            8.2761    30.4241   -17.7077 H             1 RES     
    2534 H            9.7413    29.4253   -17.8657 H             1 RES     
    2535 C            9.8239    31.3025   -18.9368 C             1 RES     
    2536 H           10.9131    31.3196   -18.9745 H             1 RES     
    2537 H            9.4480    32.3185   -18.8164 H             1 RES     
    2538 C            9.2748    30.7039   -20.2452 C             1 RES     
    2539 H            8.1856    30.6868   -20.2075 H             1 RES     
    2540 H            9.6507    29.6879   -20.3655 H             1 RES     
    2541 C            9.7334    31.5651   -21.4367 C             1 RES     
    2542 H           10.8226    31.5823   -21.4743 H             1 RES     
    2543 H            9.3574    32.5811   -21.3163 H             1 RES     
    2544 C            9.1842    30.9666   -22.7450 C             1 RES     
    2545 H            8.0950    30.9494   -22.7074 H             1 RES     
    2546 H            9.5602    29.9506   -22.8654 H             1 RES     
    2547 C            9.6428    31.8278   -23.9365 C             1 RES     
    2548 H           10.7320    31.8449   -23.9742 H             1 RES     
    2549 H            9.2668    32.8438   -23.8162 H             1 RES     
    2550 C            9.0937    31.2293   -25.2449 C             1 RES     
    2551 H            8.0045    31.2121   -25.2073 H             1 RES     
    2552 H            9.4696    30.2133   -25.3653 H             1 RES     
    2553 C            9.5314    32.0513   -26.3822 C             1 RES     
    2554 H            8.6508    32.6516   -26.2873 H             1 RES     
    2555 H            9.7383    31.8825   -27.4185 H             1 RES     
    2556 H           10.3595    32.5583   -25.9311 H             1 RES     
    2557 N           27.3861    21.9089     5.0000 N             1 RES     
    2558 C           27.4678    23.3731     5.2163 C             1 RES     
    2559 H           28.3606    23.8116     4.7226 H             1 RES     
    2560 H           27.5541    23.6127     6.3003 H             1 RES     
    2561 H           26.5620    23.8865     4.8234 H             1 RES     
    2562 C           28.6199    21.2638     5.5091 C             1 RES     
    2563 H           28.5952    20.1641     5.3400 H             1 RES     
    2564 H           28.7410    21.4396     6.6018 H             1 RES     
    2565 H           29.5288    21.6730     5.0194 H             1 RES     
    2566 C           26.2336    21.3867     5.7732 C             1 RES     
    2567 H           26.3455    21.5988     6.8606 H             1 RES     
    2568 H           26.1360    20.2840     5.6540 H             1 RES     
    2569 H           25.2797    21.8518     5.4364 H             1 RES     
    2570 C           27.1596    21.5852     3.5586 C             1 RES     
    2571 H           26.2063    22.0429     3.2097 H             1 RES     
    2572 H           27.0577    20.4843     3.4260 H             1 RES     
    2573 C           28.2606    22.0529     2.5960 C             1 RES     
    2574 H           29.2357    21.5633     2.7918 H             1 RES     
    2575 H           28.3657    23.1561     2.5707 H             1 RES     
    2576 P           27.3181    22.8662     0.4318 P             1 RES     
    2577 O           27.1252    22.5006    -1.1139 O             1 RES     
    2578 O           28.1001    21.6800     1.1676 O             1 RES     
    2579 O           28.1988    24.2010     0.4849 O             1 RES     
    2580 O           25.8534    23.0113     1.0592 O             1 RES     
    2581 C           26.3979    23.6209    -1.7631 C             1 RES     
    2582 H           26.9791    24.5375    -1.6628 H             1 RES     
    2583 H           25.4280    23.7507    -1.2830 H             1 RES     
    2584 C           26.8104    21.9308    -3.5797 C             1 RES     
    2585 H           27.8770    21.9504    -3.3557 H             1 RES     
    2586 H           26.3259    21.1636    -2.9759 H             1 RES     
    2587 C           26.1931    23.3041    -3.2561 C             1 RES     
    2588 H           25.1265    23.2845    -3.4801 H             1 RES     
    2589 C           27.9096    22.2744    -5.4006 C             1 RES     
    2590 O           28.6918    22.8061    -4.6142 O             1 RES     
    2591 O           26.6149    21.6285    -5.0049 O             1 RES     
    2592 C           28.1096    22.1762    -6.8131 C             1 RES     
    2593 H           27.2929    22.6765    -7.3334 H             1 RES     
    2594 H           28.1308    21.1238    -7.0959 H             1 RES     
    2595 C           29.4455    22.8381    -7.1991 C             1 RES     
    2596 H           30.2623    22.3378    -6.6788 H             1 RES     
    2597 H           29.4244    23.8905    -6.9162 H             1 RES     
    2598 C           29.6573    22.7198    -8.7199 C             1 RES     
    2599 H           28.8405    23.2201    -9.2402 H             1 RES     
    2600 H           29.6784    21.6673    -9.0027 H             1 RES     
    2601 C           30.9931    23.3816    -9.1059 C             1 RES     
    2602 H           31.8099    22.8813    -8.5856 H             1 RES     
    2603 H           30.9720    24.4340    -8.8231 H             1 RES     
    2604 C           31.2049    23.2633   -10.6267 C             1 RES     
    2605 H           30.3881    23.7636   -11.1470 H             1 RES     
    2606 H           31.2260    22.2109   -10.9096 H             1 RES     
    2607 C           32.5408    23.9251   -11.0127 C             1 RES     
    2608 H           33.3575    23.4248   -10.4924 H             1 RES     
    2609 H           32.5196    24.9776   -10.7299 H             1 RES     
    2610 C           32.7525    23.8068   -12.5335 C             1 RES     
    2611 H           31.9357    24.3071   -13.0538 H             1 RES     
    2612 H           32.7736    22.7544   -12.8164 H             1 RES     
    2613 C           34.0884    24.4686   -12.9196 C             1 RES     
    2614 H           34.9051    23.9684   -12.3993 H             1 RES     
    2615 H           34.0673    25.5211   -12.6367 H             1 RES     
    2616 C           34.3001    24.3504   -14.4403 C             1 RES     
    2617 H           33.4834    24.8506   -14.9606 H             1 RES     
    2618 H           34.3212    23.2979   -14.7232 H             1 RES     
    2619 C           35.6360    25.0122   -14.8264 C             1 RES     
    2620 H           36.4528    24.5119   -14.3061 H             1 RES     
    2621 H           35.6149    26.0646   -14.5435 H             1 RES     
    2622 C           35.8477    24.8939   -16.3472 C             1 RES     
    2623 H           35.0310    25.3942   -16.8675 H             1 RES     
    2624 H           35.8689    23.8414   -16.6300 H             1 RES     
    2625 C           37.1836    25.5557   -16.7332 C             1 RES     
    2626 H           38.0004    25.0554   -16.2129 H             1 RES     
    2627 H           37.1625    26.6081   -16.4503 H             1 RES     
    2628 C           37.3954    25.4374   -18.2540 C             1 RES     
    2629 H           36.5786    25.9377   -18.7743 H             1 RES     
    2630 H           37.4165    24.3850   -18.5368 H             1 RES     
    2631 C           38.7312    26.0992   -18.6400 C             1 RES     
    2632 H           39.5480    25.5989   -18.1197 H             1 RES     
    2633 H           38.7101    27.1517   -18.3572 H             1 RES     
    2634 C           38.9430    25.9809   -20.1608 C             1 RES     
    2635 H           38.1262    26.4812   -20.6811 H             1 RES     
    2636 H           38.9641    24.9285   -20.4437 H             1 RES     
    2637 C           40.2789    26.6428   -20.5468 C             1 RES     
    2638 H           41.0956    26.1425   -20.0265 H             1 RES     
    2639 H           40.2577    27.6952   -20.2640 H             1 RES     
    2640 C           40.4810    26.5298   -21.9985 C             1 RES     
    2641 H           40.9846    25.5966   -21.8558 H             1 RES     
    2642 H           40.9878    27.0976   -22.7508 H             1 RES     
    2643 H           39.4724    26.3476   -22.3080 H             1 RES     
    2644 C           26.2963    23.7325    -5.3250 C             1 RES     
    2645 O           25.5822    22.7342    -5.4051 O             1 RES     
    2646 O           26.8221    24.3001    -4.0400 O             1 RES     
    2647 C           26.7323    24.5181    -6.4375 C             1 RES     
    2648 H           27.8216    24.5252    -6.4751 H             1 RES     
    2649 H           26.3656    25.5375    -6.3171 H             1 RES     
    2650 C           26.1777    23.9246    -7.7459 C             1 RES     
    2651 H           25.0883    23.9174    -7.7082 H             1 RES     
    2652 H           26.5443    22.9052    -7.8662 H             1 RES     
    2653 C           26.6441    24.7815    -8.9374 C             1 RES     
    2654 H           27.7334    24.7887    -8.9750 H             1 RES     
    2655 H           26.2775    25.8009    -8.8170 H             1 RES     
    2656 C           26.0895    24.1881   -10.2457 C             1 RES     
    2657 H           25.0002    24.1809   -10.2081 H             1 RES     
    2658 H           26.4562    23.1687   -10.3661 H             1 RES     
    2659 C           26.5560    25.0450   -11.4372 C             1 RES     
    2660 H           27.6453    25.0522   -11.4749 H             1 RES     
    2661 H           26.1893    26.0644   -11.3169 H             1 RES     
    2662 C           26.0014    24.4515   -12.7456 C             1 RES     
    2663 H           24.9121    24.4444   -12.7079 H             1 RES     
    2664 H           26.3680    23.4321   -12.8660 H             1 RES     
    2665 C           26.4678    25.3085   -13.9371 C             1 RES     
    2666 H           27.5572    25.3157   -13.9747 H             1 RES     
    2667 H           26.1012    26.3279   -13.8167 H             1 RES     
    2668 C           25.9132    24.7150   -15.2454 C             1 RES     
    2669 H           24.8239    24.7078   -15.2078 H             1 RES     
    2670 H           26.2799    23.6956   -15.3658 H             1 RES     
    2671 C           26.3797    25.5720   -16.4369 C             1 RES     
    2672 H           27.4690    25.5791   -16.4746 H             1 RES     
    2673 H           26.0131    26.5914   -16.3166 H             1 RES     
    2674 C           25.8251    24.9785   -17.7453 C             1 RES     
    2675 H           24.7358    24.9713   -17.7077 H             1 RES     
    2676 H           26.1917    23.9591   -17.8657 H             1 RES     
    2677 C           26.2915    25.8354   -18.9368 C             1 RES     
    2678 H           27.3809    25.8426   -18.9745 H             1 RES     
    2679 H           25.9249    26.8548   -18.8164 H             1 RES     
    2680 C           25.7369    25.2420   -20.2452 C             1 RES     
    2681 H           24.6476    25.2348   -20.2075 H             1 RES     
    2682 H           26.1036    24.2226   -20.3655 H             1 RES     
    2683 C           26.2034    26.0989   -21.4367 C             1 RES     
    2684 H           27.2927    26.1061   -21.4743 H             1 RES     
    2685 H           25.8368    27.1183   -21.3163 H             1 RES     
    2686 C           25.6488    25.5055   -22.7450 C             1 RES     
    2687 H           24.5595    25.4983   -22.7074 H             1 RES     
    2688 H           26.0154    24.4860   -22.8654 H             1 RES     
    2689 C           26.1152    26.3624   -23.9365 C             1 RES     
    2690 H           27.2046    26.3696   -23.9742 H             1 RES     
    2691 H           25.7486    27.3818   -23.8162 H             1 RES     
    2692 C           25.5607    25.7689   -25.2449 C             1 RES     
    2693 H           24.4713    25.7617   -25.2073 H             1 RES     
    2694 H           25.9273    24.7495   -25.3653 H             1 RES     
    2695 C           26.0059    26.5869   -26.3822 C             1 RES     
    2696 H           25.1308    27.1953   -26.2873 H             1 RES     
    2697 H           26.2113    26.4162   -27.4185 H             1 RES     
    2698 H           26.8386    27.0863   -25.9311 H             1 RES     
    2699 N            5.4772    38.3406     5.0000 N             1 RES     
    2700 C            5.9470    39.7298     5.2163 C             1 RES     
    2701 H            6.9245    39.9139     4.7226 H             1 RES     
    2702 H            6.0941    39.9377     6.3003 H             1 RES     
    2703 H            5.2111    40.4665     4.8234 H             1 RES     
    2704 C            6.4939    37.3895     5.5091 C             1 RES     
    2705 H            6.1764    36.3363     5.3400 H             1 RES     
    2706 H            6.6575    37.5265     6.6018 H             1 RES     
    2707 H            7.4791    37.5411     5.0194 H             1 RES     
    2708 C            4.2272    38.1451     5.7732 C             1 RES     
    2709 H            4.3916    38.3196     6.8606 H             1 RES     
    2710 H            3.8386    37.1085     5.6540 H             1 RES     
    2711 H            3.4320    38.8480     5.4364 H             1 RES     
    2712 C            5.1725    38.0891     3.5586 C             1 RES     
    2713 H            4.3761    38.7848     3.2097 H             1 RES     
    2714 H            4.7803    37.0554     3.4260 H             1 RES     
    2715 C            6.3584    38.2458     2.5960 C             1 RES     
    2716 H            7.1673    37.5136     2.7918 H             1 RES     
    2717 H            6.7543    39.2809     2.5707 H             1 RES     
    2718 P            5.6674    39.2813     0.4318 P             1 RES     
    2719 O            5.3837    38.9805    -1.1139 O             1 RES     
    2720 O            6.1041    37.9293     1.1676 O             1 RES     
    2721 O            6.8725    40.3324     0.4849 O             1 RES     
    2722 O            4.2946    39.8122     1.0592 O             1 RES     
    2723 C            4.9821    40.2543    -1.7631 C             1 RES     
    2724 H            5.7869    40.9824    -1.6628 H             1 RES     
    2725 H            4.0820    40.6384    -1.2830 H             1 RES     
    2726 C            4.9283    38.5155    -3.5797 C             1 RES     
    2727 H            5.9614    38.2495    -3.3557 H             1 RES     
    2728 H            4.2564    37.9054    -2.9759 H             1 RES     
    2729 C            4.7001    40.0037    -3.2561 C             1 RES     
    2730 H            3.6670    40.2697    -3.4801 H             1 RES     
    2731 C            6.0793    38.5530    -5.4006 C             1 RES     
    2732 O            6.9751    38.8565    -4.6142 O             1 RES     
    2733 O            4.6591    38.2763    -5.0049 O             1 RES     
    2734 C            6.2459    38.4050    -6.8131 C             1 RES     
    2735 H            5.5924    39.1052    -7.3334 H             1 RES     
    2736 H            5.9852    37.3851    -7.0959 H             1 RES     
    2737 C            7.7100    38.6861    -7.1991 C             1 RES     
    2738 H            8.3635    37.9858    -6.6788 H             1 RES     
    2739 H            7.9707    39.7059    -6.9162 H             1 RES     
    2740 C            7.8824    38.5155    -8.7199 C             1 RES     
    2741 H            7.2289    39.2157    -9.2402 H             1 RES     
    2742 H            7.6217    37.4956    -9.0027 H             1 RES     
    2743 C            9.3465    38.7966    -9.1059 C             1 RES     
    2744 H           10.0000    38.0963    -8.5856 H             1 RES     
    2745 H            9.6072    39.8164    -8.8231 H             1 RES     
    2746 C            9.5190    38.6260   -10.6267 C             1 RES     
    2747 H            8.8655    39.3262   -11.1470 H             1 RES     
    2748 H            9.2583    37.6062   -10.9096 H             1 RES     
    2749 C           10.9831    38.9071   -11.0127 C             1 RES     
    2750 H           11.6366    38.2068   -10.4924 H             1 RES     
    2751 H           11.2438    39.9269   -10.7299 H             1 RES     
    2752 C           11.1555    38.7365   -12.5335 C             1 RES     
    2753 H           10.5020    39.4368   -13.0538 H             1 RES     
    2754 H           10.8948    37.7167   -12.8164 H             1 RES     
    2755 C           12.6196    39.0176   -12.9196 C             1 RES     
    2756 H           13.2731    38.3173   -12.3993 H             1 RES     
    2757 H           12.8804    40.0374   -12.6367 H             1 RES     
    2758 C           12.7921    38.8470   -14.4403 C             1 RES     
    2759 H           12.1386    39.5473   -14.9606 H             1 RES     
    2760 H           12.5314    37.8272   -14.7232 H             1 RES     
    2761 C           14.2562    39.1281   -14.8264 C             1 RES     
    2762 H           14.9097    38.4278   -14.3061 H             1 RES     
    2763 H           14.5169    40.1479   -14.5435 H             1 RES     
    2764 C           14.4287    38.9575   -16.3472 C             1 RES     
    2765 H           13.7752    39.6578   -16.8675 H             1 RES     
    2766 H           14.1680    37.9377   -16.6300 H             1 RES     
    2767 C           15.8928    39.2386   -16.7332 C             1 RES     
    2768 H           16.5463    38.5383   -16.2129 H             1 RES     
    2769 H           16.1535    40.2584   -16.4503 H             1 RES     
    2770 C           16.0652    39.0680   -18.2540 C             1 RES     
    2771 H           15.4117    39.7683   -18.7743 H             1 RES     
    2772 H           15.8045    38.0482   -18.5368 H             1 RES     
    2773 C           17.5293    39.3491   -18.6400 C             1 RES     
    2774 H           18.1828    38.6489   -18.1197 H             1 RES     
    2775 H           17.7900    40.3689   -18.3572 H             1 RES     
    2776 C           17.7018    39.1785   -20.1608 C             1 RES     
    2777 H           17.0483    39.8788   -20.6811 H             1 RES     
    2778 H           17.4411    38.1587   -20.4437 H             1 RES     
    2779 C           19.1659    39.4596   -20.5468 C             1 RES     
    2780 H           19.8194    38.7594   -20.0265 H             1 RES     
    2781 H           19.4266    40.4795   -20.2640 H             1 RES     
    2782 C           19.3305    39.2968   -21.9985 C             1 RES     
    2783 H           19.5666    38.2630   -21.8558 H             1 RES     
    2784 H           19.9706    39.7086   -22.7508 H             1 RES     
    2785 H           18.3099    39.3905   -22.3080 H             1 RES     
    2786 C            4.9140    40.3890    -5.3250 C             1 RES     
    2787 O            3.9593    39.6177    -5.4051 O             1 RES     
    2788 O            5.5723    40.7956    -4.0400 O             1 RES     
    2789 C            5.5439    41.0296    -6.4375 C             1 RES     
    2790 H            6.5956    40.7456    -6.4751 H             1 RES     
    2791 H            5.4628    42.1099    -6.3171 H             1 RES     
    2792 C            4.8509    40.6058    -7.7459 C             1 RES     
    2793 H            3.7992    40.8898    -7.7082 H             1 RES     
    2794 H            4.9320    39.5255    -7.8662 H             1 RES     
    2795 C            5.5293    41.3070    -8.9374 C             1 RES     
    2796 H            6.5810    41.0231    -8.9750 H             1 RES     
    2797 H            5.4482    42.3873    -8.8170 H             1 RES     
    2798 C            4.8363    40.8832   -10.2457 C             1 RES     
    2799 H            3.7847    41.1672   -10.2081 H             1 RES     
    2800 H            4.9174    39.8029   -10.3661 H             1 RES     
    2801 C            5.5147    41.5845   -11.4372 C             1 RES     
    2802 H            6.5664    41.3005   -11.4749 H             1 RES     
    2803 H            5.4336    42.6648   -11.3169 H             1 RES     
    2804 C            4.8218    41.1607   -12.7456 C             1 RES     
    2805 H            3.7701    41.4446   -12.7079 H             1 RES     
    2806 H            4.9029    40.0804   -12.8660 H             1 RES     
    2807 C            5.5001    41.8619   -13.9371 C             1 RES     
    2808 H            6.5518    41.5780   -13.9747 H             1 RES     
    2809 H            5.4190    42.9422   -13.8167 H             1 RES     
    2810 C            4.8072    41.4381   -15.2454 C             1 RES     
    2811 H            3.7555    41.7221   -15.2078 H             1 RES     
    2812 H            4.8883    40.3578   -15.3658 H             1 RES     
    2813 C            5.4855    42.1394   -16.4369 C             1 RES     
    2814 H            6.5372    41.8554   -16.4746 H             1 RES     
    2815 H            5.4044    43.2197   -16.3166 H             1 RES     
    2816 C            4.7926    41.7156   -17.7453 C             1 RES     
    2817 H            3.7409    41.9995   -17.7077 H             1 RES     
    2818 H            4.8737    40.6353   -17.8657 H             1 RES     
    2819 C            5.4709    42.4168   -18.9368 C             1 RES     
    2820 H            6.5226    42.1328   -18.9745 H             1 RES     
    2821 H            5.3899    43.4971   -18.8164 H             1 RES     
    2822 C            4.7780    41.9930   -20.2452 C             1 RES     
    2823 H            3.7263    42.2770   -20.2075 H             1 RES     
    2824 H            4.8591    40.9127   -20.3655 H             1 RES     
    2825 C            5.4564    42.6943   -21.4367 C             1 RES     
    2826 H            6.5080    42.4103   -21.4743 H             1 RES     
    2827 H            5.3753    43.7746   -21.3163 H             1 RES     
    2828 C            4.7634    42.2705   -22.7450 C             1 RES     
    2829 H            3.7117    42.5544   -22.7074 H             1 RES     
    2830 H            4.8445    41.1902   -22.8654 H             1 RES     
    2831 C            5.4418    42.9717   -23.9365 C             1 RES     
    2832 H            6.4935    42.6877   -23.9742 H             1 RES     
    2833 H            5.3607    44.0520   -23.8162 H             1 RES     
    2834 C            4.7488    42.5479   -25.2449 C             1 RES     
    2835 H            3.6972    42.8319   -25.2073 H             1 RES     
    2836 H            4.8299    41.4676   -25.3653 H             1 RES     
    2837 C            5.3964    43.2173   -26.3822 C             1 RES     
    2838 H            4.7155    44.0373   -26.2873 H             1 RES     
    2839 H            5.5487    42.9979   -27.4185 H             1 RES     
    2840 H            6.3321    43.4762   -25.9311 H             1 RES     
    2841 N           32.8634    10.9545     5.0000 N             1 RES     
    2842 C           33.3332    12.3436     5.2163 C             1 RES     
    2843 H           34.3107    12.5277     4.7226 H             1 RES     
    2844 H           33.4804    12.5515     6.3003 H             1 RES     
    2845 H           32.5974    13.0804     4.8234 H             1 RES     
    2846 C           33.8800    10.0033     5.5091 C             1 RES     
    2847 H           33.5624     8.9501     5.3400 H             1 RES     
    2848 H           34.0436    10.1403     6.6018 H             1 RES     
    2849 H           34.8651    10.1548     5.0194 H             1 RES     
    2850 C           31.6133    10.7591     5.7732 C             1 RES     
    2851 H           31.7777    10.9336     6.8606 H             1 RES     
    2852 H           31.2246     9.7225     5.6540 H             1 RES     
    2853 H           30.8182    11.4621     5.4364 H             1 RES     
    2854 C           32.5586    10.7030     3.5586 C             1 RES     
    2855 H           31.7622    11.3987     3.2097 H             1 RES     
    2856 H           32.1663     9.6693     3.4260 H             1 RES     
    2857 C           33.7445    10.8596     2.5960 C             1 RES     
    2858 H           34.5534    10.1273     2.7918 H             1 RES     
    2859 H           34.1405    11.8947     2.5707 H             1 RES     
    2860 P           33.0536    11.8951     0.4318 P             1 RES     
    2861 O           32.7699    11.5944    -1.1139 O             1 RES     
    2862 O           33.4902    10.5431     1.1676 O             1 RES     
    2863 O           34.2587    12.9462     0.4849 O             1 RES     
    2864 O           31.6808    12.4262     1.0592 O             1 RES     
    2865 C           32.3684    12.8682    -1.7631 C             1 RES     
    2866 H           33.1733    13.5963    -1.6628 H             1 RES     
    2867 H           31.4683    13.2524    -1.2830 H             1 RES     
    2868 C           32.3144    11.1294    -3.5797 C             1 RES     
    2869 H           33.3475    10.8633    -3.3557 H             1 RES     
    2870 H           31.6425    10.5194    -2.9759 H             1 RES     
    2871 C           32.0863    12.6176    -3.2561 C             1 RES     
    2872 H           31.0533    12.8837    -3.4801 H             1 RES     
    2873 C           33.4654    11.1668    -5.4006 C             1 RES     
    2874 O           34.3612    11.4702    -4.6142 O             1 RES     
    2875 O           32.0452    10.8902    -5.0049 O             1 RES     
    2876 C           33.6320    11.0188    -6.8131 C             1 RES     
    2877 H           32.9785    11.7191    -7.3334 H             1 RES     
    2878 H           33.3712     9.9990    -7.0959 H             1 RES     
    2879 C           35.0961    11.2998    -7.1991 C             1 RES     
    2880 H           35.7496    10.5995    -6.6788 H             1 RES     
    2881 H           35.3569    12.3196    -6.9162 H             1 RES     
    2882 C           35.2686    11.1292    -8.7199 C             1 RES     
    2883 H           34.6151    11.8295    -9.2402 H             1 RES     
    2884 H           35.0078    10.1094    -9.0027 H             1 RES     
    2885 C           36.7327    11.4101    -9.1059 C             1 RES     
    2886 H           37.3861    10.7098    -8.5856 H             1 RES     
    2887 H           36.9935    12.4300    -8.8231 H             1 RES     
    2888 C           36.9051    11.2396   -10.6267 C             1 RES     
    2889 H           36.2517    11.9399   -11.1470 H             1 RES     
    2890 H           36.6443    10.2197   -10.9096 H             1 RES     
    2891 C           38.3693    11.5205   -11.0127 C             1 RES     
    2892 H           39.0227    10.8202   -10.4924 H             1 RES     
    2893 H           38.6300    12.5404   -10.7299 H             1 RES     
    2894 C           38.5417    11.3500   -12.5335 C             1 RES     
    2895 H           37.8883    12.0502   -13.0538 H             1 RES     
    2896 H           38.2809    10.3301   -12.8164 H             1 RES     
    2897 C           40.0058    11.6309   -12.9196 C             1 RES     
    2898 H           40.6593    10.9306   -12.3993 H             1 RES     
    2899 H           40.2666    12.6507   -12.6367 H             1 RES     
    2900 C           40.1783    11.4603   -14.4403 C             1 RES     
    2901 H           39.5248    12.1606   -14.9606 H             1 RES     
    2902 H           39.9175    10.4405   -14.7232 H             1 RES     
    2903 C           41.6424    11.7413   -14.8264 C             1 RES     
    2904 H           42.2958    11.0410   -14.3061 H             1 RES     
    2905 H           41.9032    12.7611   -14.5435 H             1 RES     
    2906 C           41.8148    11.5707   -16.3472 C             1 RES     
    2907 H           41.1614    12.2710   -16.8675 H             1 RES     
    2908 H           41.5541    10.5509   -16.6300 H             1 RES     
    2909 C           43.2790    11.8517   -16.7332 C             1 RES     
    2910 H           43.9324    11.1514   -16.2129 H             1 RES     
    2911 H           43.5398    12.8715   -16.4503 H             1 RES     
    2912 C           43.4514    11.6811   -18.2540 C             1 RES     
    2913 H           42.7980    12.3814   -18.7743 H             1 RES     
    2914 H           43.1906    10.6613   -18.5368 H             1 RES     
    2915 C           44.9155    11.9620   -18.6400 C             1 RES     
    2916 H           45.5690    11.2617   -18.1197 H             1 RES     
    2917 H           45.1763    12.9819   -18.3572 H             1 RES     
    2918 C           45.0880    11.7915   -20.1608 C             1 RES     
    2919 H           44.4345    12.4918   -20.6811 H             1 RES     
    2920 H           44.8272    10.7716   -20.4437 H             1 RES     
    2921 C           46.5521    12.0724   -20.5468 C             1 RES     
    2922 H           47.2056    11.3721   -20.0265 H             1 RES     
    2923 H           46.8129    13.0923   -20.2640 H             1 RES     
    2924 C           46.7167    11.9096   -21.9985 C             1 RES     
    2925 H           46.9527    10.8758   -21.8558 H             1 RES     
    2926 H           47.3568    12.3214   -22.7508 H             1 RES     
    2927 H           45.6961    12.0034   -22.3080 H             1 RES     
    2928 C           32.3003    13.0029    -5.3250 C             1 RES     
    2929 O           31.3455    12.2317    -5.4051 O             1 RES     
    2930 O           32.9586    13.4095    -4.0400 O             1 RES     
    2931 C           32.9302    13.6435    -6.4375 C             1 RES     
    2932 H           33.9819    13.3594    -6.4751 H             1 RES     
    2933 H           32.8492    14.7238    -6.3171 H             1 RES     
    2934 C           32.2372    13.2197    -7.7459 C             1 RES     
    2935 H           31.1856    13.5038    -7.7082 H             1 RES     
    2936 H           32.3182    12.1394    -7.8662 H             1 RES     
    2937 C           32.9156    13.9209    -8.9374 C             1 RES     
    2938 H           33.9673    13.6368    -8.9750 H             1 RES     
    2939 H           32.8346    15.0012    -8.8170 H             1 RES     
    2940 C           32.2227    13.4971   -10.2457 C             1 RES     
    2941 H           31.1710    13.7812   -10.2081 H             1 RES     
    2942 H           32.3037    12.4168   -10.3661 H             1 RES     
    2943 C           32.9011    14.1983   -11.4372 C             1 RES     
    2944 H           33.9527    13.9143   -11.4749 H             1 RES     
    2945 H           32.8201    15.2786   -11.3169 H             1 RES     
    2946 C           32.2081    13.7746   -12.7456 C             1 RES     
    2947 H           31.1564    14.0586   -12.7079 H             1 RES     
    2948 H           32.2891    12.6943   -12.8660 H             1 RES     
    2949 C           32.8865    14.4758   -13.9371 C             1 RES     
    2950 H           33.9382    14.1917   -13.9747 H             1 RES     
    2951 H           32.8055    15.5561   -13.8167 H             1 RES     
    2952 C           32.1935    14.0520   -15.2454 C             1 RES     
    2953 H           31.1419    14.3361   -15.2078 H             1 RES     
    2954 H           32.2746    12.9717   -15.3658 H             1 RES     
    2955 C           32.8720    14.7532   -16.4369 C             1 RES     
    2956 H           33.9236    14.4692   -16.4746 H             1 RES     
    2957 H           32.7909    15.8335   -16.3166 H             1 RES     
    2958 C           32.1790    14.3295   -17.7453 C             1 RES     
    2959 H           31.1273    14.6135   -17.7077 H             1 RES     
    2960 H           32.2600    13.2492   -17.8657 H             1 RES     
    2961 C           32.8574    15.0307   -18.9368 C             1 RES     
    2962 H           33.9090    14.7466   -18.9745 H             1 RES     
    2963 H           32.7764    16.1110   -18.8164 H             1 RES     
    2964 C           32.1644    14.6069   -20.2452 C             1 RES     
    2965 H           31.1128    14.8910   -20.2075 H             1 RES     
    2966 H           32.2454    13.5266   -20.3655 H             1 RES     
    2967 C           32.8428    15.3081   -21.4367 C             1 RES     
    2968 H           33.8945    15.0241   -21.4743 H             1 RES     
    2969 H           32.7618    16.3884   -21.3163 H             1 RES     
    2970 C           32.1499    14.8844   -22.7450 C             1 RES     
    2971 H           31.0982    15.1684   -22.7074 H             1 RES     
    2972 H           32.2309    13.8041   -22.8654 H             1 RES     
    2973 C           32.8283    15.5856   -23.9365 C             1 RES     
    2974 H           33.8799    15.3015   -23.9742 H             1 RES     
    2975 H           32.7473    16.6659   -23.8162 H             1 RES     
    2976 C           32.1353    15.1618   -25.2449 C             1 RES     
    2977 H           31.0836    15.4459   -25.2073 H             1 RES     
    2978 H           32.2163    14.0815   -25.3653 H             1 RES     
    2979 C           32.7829    15.8312   -26.3822 C             1 RES     
    2980 H           32.1021    16.6512   -26.2873 H             1 RES     
    2981 H           32.9352    15.6118   -27.4185 H             1 RES     
    2982 H           33.7187    16.0900   -25.9311 H             1 RES     
    2983 N           16.4317    27.3861     5.0000 N             1 RES     
    2984 C           16.5314    28.8492     5.2163 C             1 RES     
    2985 H           17.4296    29.2767     4.7226 H             1 RES     
    2986 H           16.6207    29.0877     6.3003 H             1 RES     
    2987 H           15.6320    29.3738     4.8234 H             1 RES     
    2988 C           17.6574    26.7259     5.5091 C             1 RES     
    2989 H           17.6191    25.6266     5.3400 H             1 RES     
    2990 H           17.7806    26.9001     6.6018 H             1 RES     
    2991 H           18.5713    27.1238     5.0194 H             1 RES     
    2992 C           15.2728    26.8782     5.7732 C             1 RES     
    2993 H           15.3873    27.0889     6.8606 H             1 RES     
    2994 H           15.1616    25.7767     5.6540 H             1 RES     
    2995 H           14.3247    27.3550     5.4364 H             1 RES     
    2996 C           16.2012    27.0652     3.5586 C             1 RES     
    2997 H           15.2536    27.5347     3.2097 H             1 RES     
    2998 H           16.0857    25.9656     3.4260 H             1 RES     
    2999 C           17.3079    27.5193     2.5960 C             1 RES     
    3000 H           18.2768    27.0177     2.7918 H             1 RES     
    3001 H           17.4265    28.6212     2.5707 H             1 RES     
    3002 P           16.3755    28.3442     0.4318 P             1 RES     
    3003 O           16.1780    27.9810    -1.1139 O             1 RES     
    3004 O           17.1427    27.1484     1.1676 O             1 RES     
    3005 O           17.2725    29.6680     0.4849 O             1 RES     
    3006 O           14.9127    28.5073     1.0592 O             1 RES     
    3007 C           15.4647    29.1101    -1.7631 C             1 RES     
    3008 H           16.0571    30.0196    -1.6628 H             1 RES     
    3009 H           14.4964    29.2519    -1.2830 H             1 RES     
    3010 C           15.8563    27.4152    -3.5797 C             1 RES     
    3011 H           16.9230    27.4216    -3.3557 H             1 RES     
    3012 H           15.3623    26.6539    -2.9759 H             1 RES     
    3013 C           15.2559    28.7959    -3.2561 C             1 RES     
    3014 H           14.1892    28.7895    -3.4801 H             1 RES     
    3015 C           16.9596    27.7451    -5.4006 C             1 RES     
    3016 O           17.7483    28.2671    -4.6142 O             1 RES     
    3017 O           15.6570    27.1152    -5.0049 O             1 RES     
    3018 C           17.1584    27.6445    -6.8131 C             1 RES     
    3019 H           16.3479    28.1549    -7.3334 H             1 RES     
    3020 H           17.1666    26.5919    -7.0959 H             1 RES     
    3021 C           18.5024    28.2898    -7.1991 C             1 RES     
    3022 H           19.3129    27.7795    -6.6788 H             1 RES     
    3023 H           18.4942    29.3425    -6.9162 H             1 RES     
    3024 C           18.7126    28.1689    -8.7199 C             1 RES     
    3025 H           17.9021    28.6793    -9.2402 H             1 RES     
    3026 H           18.7208    27.1163    -9.0027 H             1 RES     
    3027 C           20.0566    28.8142    -9.1059 C             1 RES     
    3028 H           20.8671    28.3039    -8.5856 H             1 RES     
    3029 H           20.0484    29.8669    -8.8231 H             1 RES     
    3030 C           20.2668    28.6933   -10.6267 C             1 RES     
    3031 H           19.4563    29.2037   -11.1470 H             1 RES     
    3032 H           20.2750    27.6407   -10.9096 H             1 RES     
    3033 C           21.6108    29.3386   -11.0127 C             1 RES     
    3034 H           22.4213    28.8283   -10.4924 H             1 RES     
    3035 H           21.6026    30.3913   -10.7299 H             1 RES     
    3036 C           21.8210    29.2177   -12.5335 C             1 RES     
    3037 H           21.0105    29.7281   -13.0538 H             1 RES     
    3038 H           21.8292    28.1651   -12.8164 H             1 RES     
    3039 C           23.1650    29.8630   -12.9196 C             1 RES     
    3040 H           23.9755    29.3527   -12.3993 H             1 RES     
    3041 H           23.1568    30.9157   -12.6367 H             1 RES     
    3042 C           23.3752    29.7422   -14.4403 C             1 RES     
    3043 H           22.5647    30.2525   -14.9606 H             1 RES     
    3044 H           23.3834    28.6895   -14.7232 H             1 RES     
    3045 C           24.7192    30.3875   -14.8264 C             1 RES     
    3046 H           25.5297    29.8771   -14.3061 H             1 RES     
    3047 H           24.7110    31.4401   -14.5435 H             1 RES     
    3048 C           24.9294    30.2666   -16.3472 C             1 RES     
    3049 H           24.1189    30.7769   -16.8675 H             1 RES     
    3050 H           24.9376    29.2139   -16.6300 H             1 RES     
    3051 C           26.2734    30.9119   -16.7332 C             1 RES     
    3052 H           27.0839    30.4015   -16.2129 H             1 RES     
    3053 H           26.2653    31.9645   -16.4503 H             1 RES     
    3054 C           26.4837    30.7910   -18.2540 C             1 RES     
    3055 H           25.6731    31.3013   -18.7743 H             1 RES     
    3056 H           26.4918    29.7383   -18.5368 H             1 RES     
    3057 C           27.8276    31.4363   -18.6400 C             1 RES     
    3058 H           28.6381    30.9259   -18.1197 H             1 RES     
    3059 H           27.8195    32.4889   -18.3572 H             1 RES     
    3060 C           28.0379    31.3154   -20.1608 C             1 RES     
    3061 H           27.2273    31.8257   -20.6811 H             1 RES     
    3062 H           28.0460    30.2627   -20.4437 H             1 RES     
    3063 C           29.3818    31.9607   -20.5468 C             1 RES     
    3064 H           30.1923    31.4503   -20.0265 H             1 RES     
    3065 H           29.3737    33.0133   -20.2640 H             1 RES     
    3066 C           29.5825    31.8453   -21.9985 C             1 RES     
    3067 H           30.0745    30.9059   -21.8558 H             1 RES     
    3068 H           30.0963    32.4067   -22.7508 H             1 RES     
    3069 H           28.5718    31.6755   -22.3080 H             1 RES     
    3070 C           15.3644    29.2230    -5.3250 C             1 RES     
    3071 O           14.6381    28.2336    -5.4051 O             1 RES     
    3072 O           15.8972    29.7841    -4.0400 O             1 RES     
    3073 C           15.8100    30.0031    -6.4375 C             1 RES     
    3074 H           16.8994    29.9969    -6.4751 H             1 RES     
    3075 H           15.4560    31.0270    -6.3171 H             1 RES     
    3076 C           15.2482    29.4166    -7.7459 C             1 RES     
    3077 H           14.1588    29.4228    -7.7082 H             1 RES     
    3078 H           15.6022    28.3927    -7.8662 H             1 RES     
    3079 C           15.7251    30.2677    -8.9374 C             1 RES     
    3080 H           16.8145    30.2614    -8.9750 H             1 RES     
    3081 H           15.3711    31.2915    -8.8170 H             1 RES     
    3082 C           15.1633    29.6811   -10.2457 C             1 RES     
    3083 H           14.0739    29.6873   -10.2081 H             1 RES     
    3084 H           15.5173    28.6573   -10.3661 H             1 RES     
    3085 C           15.6403    30.5322   -11.4372 C             1 RES     
    3086 H           16.7296    30.5260   -11.4749 H             1 RES     
    3087 H           15.2862    31.5561   -11.3169 H             1 RES     
    3088 C           15.0784    29.9456   -12.7456 C             1 RES     
    3089 H           13.9890    29.9519   -12.7079 H             1 RES     
    3090 H           15.4324    28.9218   -12.8660 H             1 RES     
    3091 C           15.5554    30.7968   -13.9371 C             1 RES     
    3092 H           16.6447    30.7905   -13.9747 H             1 RES     
    3093 H           15.2013    31.8206   -13.8167 H             1 RES     
    3094 C           14.9935    30.2102   -15.2454 C             1 RES     
    3095 H           13.9042    30.2164   -15.2078 H             1 RES     
    3096 H           15.3475    29.1863   -15.3658 H             1 RES     
    3097 C           15.4705    31.0613   -16.4369 C             1 RES     
    3098 H           16.5598    31.0551   -16.4746 H             1 RES     
    3099 H           15.1164    32.0852   -16.3166 H             1 RES     
    3100 C           14.9086    30.4747   -17.7453 C             1 RES     
    3101 H           13.8193    30.4810   -17.7077 H             1 RES     
    3102 H           15.2626    29.4509   -17.8657 H             1 RES     
    3103 C           15.3856    31.3259   -18.9368 C             1 RES     
    3104 H           16.4749    31.3196   -18.9745 H             1 RES     
    3105 H           15.0315    32.3497   -18.8164 H             1 RES     
    3106 C           14.8237    30.7393   -20.2452 C             1 RES     
    3107 H           13.7344    30.7455   -20.2075 H             1 RES     
    3108 H           15.1777    29.7154   -20.3655 H             1 RES     
    3109 C           15.3007    31.5904   -21.4367 C             1 RES     
    3110 H           16.3900    31.5842   -21.4743 H             1 RES     
    3111 H           14.9467    32.6143   -21.3163 H             1 RES     
    3112 C           14.7388    31.0038   -22.7450 C             1 RES     
    3113 H           13.6495    31.0101   -22.7074 H             1 RES     
    3114 H           15.0929    29.9800   -22.8654 H             1 RES     
    3115 C           15.2158    31.8549   -23.9365 C             1 RES     
    3116 H           16.3051    31.8487   -23.9742 H             1 RES     
    3117 H           14.8618    32.8788   -23.8162 H             1 RES     
    3118 C           14.6539    31.2684   -25.2449 C             1 RES     
    3119 H           13.5646    31.2746   -25.2073 H             1 RES     
    3120 H           15.0080    30.2445   -25.3653 H             1 RES     
    3121 C           15.1092    32.0808   -26.3822 C             1 RES     
    3122 H           14.2417    32.6999   -26.2873 H             1 RES     
    3123 H           15.3125    31.9076   -27.4185 H             1 RES     
    3124 H           15.9480    32.5699   -25.9311 H             1 RES     
    3125 N           10.9545    38.3406     5.0000 N             1 RES     
    3126 C           11.2902    39.7681     5.2163 C             1 RES     
    3127 H           12.2458    40.0442     4.7226 H             1 RES     
    3128 H           11.4170    39.9890     6.3003 H             1 RES     
    3129 H           10.4878    40.4316     4.8234 H             1 RES     
    3130 C           12.0568    37.4902     5.5091 C             1 RES     
    3131 H           11.8407    36.4117     5.3400 H             1 RES     
    3132 H           12.2067    37.6422     6.6018 H             1 RES     
    3133 H           13.0231    37.7346     5.0194 H             1 RES     
    3134 C            9.7286    38.0274     5.7732 C             1 RES     
    3135 H            9.8757    38.2167     6.8606 H             1 RES     
    3136 H            9.4401    36.9586     5.6540 H             1 RES     
    3137 H            8.8703    38.6516     5.4364 H             1 RES     
    3138 C           10.6749    38.0613     3.5586 C             1 RES     
    3139 H            9.8161    38.6783     3.2097 H             1 RES     
    3140 H           10.3826    36.9950     3.4260 H             1 RES     
    3141 C           11.8407    38.3299     2.5960 C             1 RES     
    3142 H           12.7154    37.6777     2.7918 H             1 RES     
    3143 H           12.1365    39.3979     2.5707 H             1 RES     
    3144 P           11.0545    39.2951     0.4318 P             1 RES     
    3145 O           10.8007    38.9687    -1.1139 O             1 RES     
    3146 O           11.6175    37.9907     1.1676 O             1 RES     
    3147 O           12.1544    40.4559     0.4849 O             1 RES     
    3148 O            9.6375    39.6933     1.0592 O             1 RES     
    3149 C           10.2799    40.1986    -1.7631 C             1 RES     
    3150 H           11.0121    40.9999    -1.6628 H             1 RES     
    3151 H            9.3475    40.4956    -1.2830 H             1 RES     
    3152 C           10.3914    38.4626    -3.5797 C             1 RES     
    3153 H           11.4450    38.2958    -3.3557 H             1 RES     
    3154 H            9.7805    37.7915    -2.9759 H             1 RES     
    3155 C           10.0230    39.9224    -3.2561 C             1 RES     
    3156 H            8.9693    40.0892    -3.4801 H             1 RES     
    3157 C           11.5336    38.6092    -5.4006 C             1 RES     
    3158 O           12.3966    38.9963    -4.6142 O             1 RES     
    3159 O           10.1461    38.1989    -5.0049 O             1 RES     
    3160 C           11.7135    38.4777    -6.8131 C             1 RES     
    3161 H           10.9965    39.1127    -7.3334 H             1 RES     
    3162 H           11.5508    37.4377    -7.0959 H             1 RES     
    3163 C           13.1443    38.8964    -7.1991 C             1 RES     
    3164 H           13.8613    38.2613    -6.6788 H             1 RES     
    3165 H           13.3071    39.9364    -6.9162 H             1 RES     
    3166 C           13.3322    38.7430    -8.7199 C             1 RES     
    3167 H           12.6152    39.3780    -9.2402 H             1 RES     
    3168 H           13.1694    37.7030    -9.0027 H             1 RES     
    3169 C           14.7630    39.1617    -9.1059 C             1 RES     
    3170 H           15.4800    38.5266    -8.5856 H             1 RES     
    3171 H           14.9258    40.2017    -8.8231 H             1 RES     
    3172 C           14.9509    39.0083   -10.6267 C             1 RES     
    3173 H           14.2339    39.6433   -11.1470 H             1 RES     
    3174 H           14.7881    37.9683   -10.9096 H             1 RES     
    3175 C           16.3817    39.4270   -11.0127 C             1 RES     
    3176 H           17.0987    38.7920   -10.4924 H             1 RES     
    3177 H           16.5444    40.4670   -10.7299 H             1 RES     
    3178 C           16.5696    39.2736   -12.5335 C             1 RES     
    3179 H           15.8526    39.9087   -13.0538 H             1 RES     
    3180 H           16.4068    38.2336   -12.8164 H             1 RES     
    3181 C           18.0004    39.6923   -12.9196 C             1 RES     
    3182 H           18.7174    39.0573   -12.3993 H             1 RES     
    3183 H           18.1631    40.7323   -12.6367 H             1 RES     
    3184 C           18.1883    39.5389   -14.4403 C             1 RES     
    3185 H           17.4712    40.1740   -14.9606 H             1 RES     
    3186 H           18.0255    38.4989   -14.7232 H             1 RES     
    3187 C           19.6191    39.9577   -14.8264 C             1 RES     
    3188 H           20.3361    39.3226   -14.3061 H             1 RES     
    3189 H           19.7818    40.9977   -14.5435 H             1 RES     
    3190 C           19.8069    39.8043   -16.3472 C             1 RES     
    3191 H           19.0899    40.4393   -16.8675 H             1 RES     
    3192 H           19.6442    38.7643   -16.6300 H             1 RES     
    3193 C           21.2378    40.2230   -16.7332 C             1 RES     
    3194 H           21.9548    39.5879   -16.2129 H             1 RES     
    3195 H           21.4005    41.2630   -16.4503 H             1 RES     
    3196 C           21.4256    40.0696   -18.2540 C             1 RES     
    3197 H           20.7086    40.7046   -18.7743 H             1 RES     
    3198 H           21.2629    39.0296   -18.5368 H             1 RES     
    3199 C           22.8565    40.4883   -18.6400 C             1 RES     
    3200 H           23.5735    39.8533   -18.1197 H             1 RES     
    3201 H           23.0192    41.5283   -18.3572 H             1 RES     
    3202 C           23.0443    40.3349   -20.1608 C             1 RES     
    3203 H           22.3273    40.9699   -20.6811 H             1 RES     
    3204 H           22.8816    39.2949   -20.4437 H             1 RES     
    3205 C           24.4751    40.7536   -20.5468 C             1 RES     
    3206 H           25.1921    40.1186   -20.0265 H             1 RES     
    3207 H           24.6379    41.7936   -20.2640 H             1 RES     
    3208 C           24.6545    40.6072   -21.9985 C             1 RES     
    3209 H           24.9876    39.6004   -21.8558 H             1 RES     
    3210 H           25.2525    41.0779   -22.7508 H             1 RES     
    3211 H           23.6296    40.6036   -22.3080 H             1 RES     
    3212 C           10.1994    40.3263    -5.3250 C             1 RES     
    3213 O            9.3221    39.4678    -5.4051 O             1 RES     
    3214 O           10.8161    40.7935    -4.0400 O             1 RES     
    3215 C           10.7656    41.0238    -6.4375 C             1 RES     
    3216 H           11.8395    40.8409    -6.4751 H             1 RES     
    3217 H           10.5824    42.0915    -6.3171 H             1 RES     
    3218 C           10.1160    40.5361    -7.7459 C             1 RES     
    3219 H            9.0421    40.7190    -7.7082 H             1 RES     
    3220 H           10.2993    39.4684    -7.8662 H             1 RES     
    3221 C           10.7248    41.2986    -8.9374 C             1 RES     
    3222 H           11.7986    41.1157    -8.9750 H             1 RES     
    3223 H           10.5415    42.3663    -8.8170 H             1 RES     
    3224 C           10.0752    40.8109   -10.2457 C             1 RES     
    3225 H            9.0013    40.9938   -10.2081 H             1 RES     
    3226 H           10.2584    39.7432   -10.3661 H             1 RES     
    3227 C           10.6839    41.5734   -11.4372 C             1 RES     
    3228 H           11.7578    41.3905   -11.4749 H             1 RES     
    3229 H           10.5007    42.6411   -11.3169 H             1 RES     
    3230 C           10.0343    41.0857   -12.7456 C             1 RES     
    3231 H            8.9604    41.2686   -12.7079 H             1 RES     
    3232 H           10.2176    40.0180   -12.8660 H             1 RES     
    3233 C           10.6431    41.8482   -13.9371 C             1 RES     
    3234 H           11.7169    41.6653   -13.9747 H             1 RES     
    3235 H           10.4598    42.9159   -13.8167 H             1 RES     
    3236 C            9.9935    41.3605   -15.2454 C             1 RES     
    3237 H            8.9196    41.5434   -15.2078 H             1 RES     
    3238 H           10.1767    40.2928   -15.3658 H             1 RES     
    3239 C           10.6022    42.1230   -16.4369 C             1 RES     
    3240 H           11.6761    41.9401   -16.4746 H             1 RES     
    3241 H           10.4190    43.1907   -16.3166 H             1 RES     
    3242 C            9.9526    41.6354   -17.7453 C             1 RES     
    3243 H            8.8787    41.8182   -17.7077 H             1 RES     
    3244 H           10.1359    40.5676   -17.8657 H             1 RES     
    3245 C           10.5614    42.3978   -18.9368 C             1 RES     
    3246 H           11.6352    42.2149   -18.9745 H             1 RES     
    3247 H           10.3781    43.4656   -18.8164 H             1 RES     
    3248 C            9.9118    41.9102   -20.2452 C             1 RES     
    3249 H            8.8379    42.0931   -20.2075 H             1 RES     
    3250 H           10.0950    40.8424   -20.3655 H             1 RES     
    3251 C           10.5205    42.6726   -21.4367 C             1 RES     
    3252 H           11.5944    42.4898   -21.4743 H             1 RES     
    3253 H           10.3373    43.7404   -21.3163 H             1 RES     
    3254 C            9.8709    42.1850   -22.7450 C             1 RES     
    3255 H            8.7970    42.3679   -22.7074 H             1 RES     
    3256 H           10.0542    41.1173   -22.8654 H             1 RES     
    3257 C           10.4797    42.9475   -23.9365 C             1 RES     
    3258 H           11.5535    42.7646   -23.9742 H             1 RES     
    3259 H           10.2964    44.0152   -23.8162 H             1 RES     
    3260 C            9.8301    42.4598   -25.2449 C             1 RES     
    3261 H            8.7562    42.6427   -25.2073 H             1 RES     
    3262 H           10.0133    41.3921   -25.3653 H             1 RES     
    3263 C           10.4111    43.1876   -26.3822 C             1 RES     
    3264 H            9.6556    43.9393   -26.2873 H             1 RES     
    3265 H           10.5836    42.9837   -27.4185 H             1 RES     
    3266 H           11.3181    43.5341   -25.9311 H             1 RES     
    3267 N           27.3861    32.8634     5.0000 N             1 RES     
    3268 C           27.4004    34.3298     5.2163 C             1 RES     
    3269 H           28.2721    34.8089     4.7226 H             1 RES     
    3270 H           27.4756    34.5731     6.3003 H             1 RES     
    3271 H           26.4719    34.8010     4.8234 H             1 RES     
    3272 C           28.6483    32.2757     5.5091 C             1 RES     
    3273 H           28.6741    31.1760     5.3400 H             1 RES     
    3274 H           28.7611    32.4569     6.6018 H             1 RES     
    3275 H           29.5374    32.7263     5.0194 H             1 RES     
    3276 C           26.2589    32.2887     5.7732 C             1 RES     
    3277 H           26.3609    32.5057     6.8606 H             1 RES     
    3278 H           26.2121    31.1826     5.6540 H             1 RES     
    3279 H           25.2845    32.7094     5.4364 H             1 RES     
    3280 C           27.1747    32.5295     3.5586 C             1 RES     
    3281 H           26.2014    32.9429     3.2097 H             1 RES     
    3282 H           27.1236    31.4251     3.4260 H             1 RES     
    3283 C           28.2531    33.0474     2.5960 C             1 RES     
    3284 H           29.2496    32.6032     2.7918 H             1 RES     
    3285 H           28.3073    34.1543     2.5707 H             1 RES     
    3286 P           27.2742    33.8165     0.4318 P             1 RES     
    3287 O           27.0982    33.4424    -1.1139 O             1 RES     
    3288 O           28.1098    32.6675     1.1676 O             1 RES     
    3289 O           28.0925    35.1904     0.4849 O             1 RES     
    3290 O           25.8044    33.8941     1.0592 O             1 RES     
    3291 C           26.3202    34.5280    -1.7631 C             1 RES     
    3292 H           26.8586    35.4705    -1.6628 H             1 RES     
    3293 H           25.3453    34.6131    -1.2830 H             1 RES     
    3294 C           26.8100    32.8588    -3.5797 C             1 RES     
    3295 H           27.8746    32.9274    -3.3557 H             1 RES     
    3296 H           26.3613    32.0700    -2.9759 H             1 RES     
    3297 C           26.1301    34.2022    -3.2561 C             1 RES     
    3298 H           25.0656    34.1336    -3.4801 H             1 RES     
    3299 C           27.8922    33.2525    -5.4006 C             1 RES     
    3300 O           28.6491    33.8196    -4.6142 O             1 RES     
    3301 O           26.6286    32.5477    -5.0049 O             1 RES     
    3302 C           28.0966    33.1637    -6.8131 C             1 RES     
    3303 H           27.2577    33.6259    -7.3334 H             1 RES     
    3304 H           28.1661    32.1133    -7.0959 H             1 RES     
    3305 C           29.4006    33.8863    -7.1991 C             1 RES     
    3306 H           30.2395    33.4241    -6.6788 H             1 RES     
    3307 H           29.3311    34.9366    -6.9162 H             1 RES     
    3308 C           29.6176    33.7778    -8.7199 C             1 RES     
    3309 H           28.7786    34.2400    -9.2402 H             1 RES     
    3310 H           29.6871    32.7275    -9.0027 H             1 RES     
    3311 C           30.9216    34.5004    -9.1059 C             1 RES     
    3312 H           31.7605    34.0382    -8.5856 H             1 RES     
    3313 H           30.8521    35.5508    -8.8231 H             1 RES     
    3314 C           31.1385    34.3920   -10.6267 C             1 RES     
    3315 H           30.2996    34.8542   -11.1470 H             1 RES     
    3316 H           31.2080    33.3416   -10.9096 H             1 RES     
    3317 C           32.4426    35.1146   -11.0127 C             1 RES     
    3318 H           33.2815    34.6524   -10.4924 H             1 RES     
    3319 H           32.3731    36.1649   -10.7299 H             1 RES     
    3320 C           32.6595    35.0061   -12.5335 C             1 RES     
    3321 H           31.8206    35.4683   -13.0538 H             1 RES     
    3322 H           32.7290    33.9558   -12.8164 H             1 RES     
    3323 C           33.9635    35.7287   -12.9196 C             1 RES     
    3324 H           34.8024    35.2665   -12.3993 H             1 RES     
    3325 H           33.8940    36.7791   -12.6367 H             1 RES     
    3326 C           34.1805    35.6203   -14.4403 C             1 RES     
    3327 H           33.3416    36.0825   -14.9606 H             1 RES     
    3328 H           34.2500    34.5699   -14.7232 H             1 RES     
    3329 C           35.4845    36.3428   -14.8264 C             1 RES     
    3330 H           36.3234    35.8807   -14.3061 H             1 RES     
    3331 H           35.4150    37.3932   -14.5435 H             1 RES     
    3332 C           35.7015    36.2344   -16.3472 C             1 RES     
    3333 H           34.8626    36.6966   -16.8675 H             1 RES     
    3334 H           35.7710    35.1841   -16.6300 H             1 RES     
    3335 C           37.0055    36.9570   -16.7332 C             1 RES     
    3336 H           37.8444    36.4948   -16.2129 H             1 RES     
    3337 H           36.9360    38.0074   -16.4503 H             1 RES     
    3338 C           37.2224    36.8486   -18.2540 C             1 RES     
    3339 H           36.3835    37.3107   -18.7743 H             1 RES     
    3340 H           37.2919    35.7982   -18.5368 H             1 RES     
    3341 C           38.5265    37.5711   -18.6400 C             1 RES     
    3342 H           39.3654    37.1089   -18.1197 H             1 RES     
    3343 H           38.4570    38.6215   -18.3572 H             1 RES     
    3344 C           38.7434    37.4627   -20.1608 C             1 RES     
    3345 H           37.9045    37.9249   -20.6811 H             1 RES     
    3346 H           38.8129    36.4123   -20.4437 H             1 RES     
    3347 C           40.0474    38.1853   -20.5468 C             1 RES     
    3348 H           40.8864    37.7231   -20.0265 H             1 RES     
    3349 H           39.9779    39.2356   -20.2640 H             1 RES     
    3350 C           40.2545    38.0818   -21.9985 C             1 RES     
    3351 H           40.8005    37.1727   -21.8558 H             1 RES     
    3352 H           40.7347    38.6723   -22.7508 H             1 RES     
    3353 H           39.2554    37.8533   -22.3080 H             1 RES     
    3354 C           26.2136    34.6349    -5.3250 C             1 RES     
    3355 O           25.5462    33.6048    -5.4051 O             1 RES     
    3356 O           26.7127    35.2261    -4.0400 O             1 RES     
    3357 C           26.6129    35.4397    -6.4375 C             1 RES     
    3358 H           27.7008    35.4969    -6.4751 H             1 RES     
    3359 H           26.1998    36.4411    -6.3171 H             1 RES     
    3360 C           26.0862    34.8213    -7.7459 C             1 RES     
    3361 H           24.9984    34.7640    -7.7082 H             1 RES     
    3362 H           26.4994    33.8198    -7.8662 H             1 RES     
    3363 C           26.5128    35.6988    -8.9374 C             1 RES     
    3364 H           27.6006    35.7561    -8.9750 H             1 RES     
    3365 H           26.0996    36.7003    -8.8170 H             1 RES     
    3366 C           25.9861    35.0805   -10.2457 C             1 RES     
    3367 H           24.8982    35.0232   -10.2081 H             1 RES     
    3368 H           26.3992    34.0790   -10.3661 H             1 RES     
    3369 C           26.4126    35.9579   -11.4372 C             1 RES     
    3370 H           27.5004    36.0152   -11.4749 H             1 RES     
    3371 H           25.9994    36.9594   -11.3169 H             1 RES     
    3372 C           25.8859    35.3396   -12.7456 C             1 RES     
    3373 H           24.7980    35.2823   -12.7079 H             1 RES     
    3374 H           26.2990    34.3381   -12.8660 H             1 RES     
    3375 C           26.3124    36.2171   -13.9371 C             1 RES     
    3376 H           27.4003    36.2744   -13.9747 H             1 RES     
    3377 H           25.8993    37.2186   -13.8167 H             1 RES     
    3378 C           25.7857    35.5987   -15.2454 C             1 RES     
    3379 H           24.6979    35.5415   -15.2078 H             1 RES     
    3380 H           26.1988    34.5973   -15.3658 H             1 RES     
    3381 C           26.2122    36.4762   -16.4369 C             1 RES     
    3382 H           27.3001    36.5335   -16.4746 H             1 RES     
    3383 H           25.7991    37.4777   -16.3166 H             1 RES     
    3384 C           25.6855    35.8579   -17.7453 C             1 RES     
    3385 H           24.5977    35.8006   -17.7077 H             1 RES     
    3386 H           26.0987    34.8564   -17.8657 H             1 RES     
    3387 C           26.1121    36.7354   -18.9368 C             1 RES     
    3388 H           27.1999    36.7927   -18.9745 H             1 RES     
    3389 H           25.6989    37.7368   -18.8164 H             1 RES     
    3390 C           25.5854    36.1170   -20.2452 C             1 RES     
    3391 H           24.4975    36.0597   -20.2075 H             1 RES     
    3392 H           25.9985    35.1156   -20.3655 H             1 RES     
    3393 C           26.0119    36.9945   -21.4367 C             1 RES     
    3394 H           27.0997    37.0518   -21.4743 H             1 RES     
    3395 H           25.5988    37.9960   -21.3163 H             1 RES     
    3396 C           25.4852    36.3762   -22.7450 C             1 RES     
    3397 H           24.3973    36.3189   -22.7074 H             1 RES     
    3398 H           25.8983    35.3747   -22.8654 H             1 RES     
    3399 C           25.9117    37.2537   -23.9365 C             1 RES     
    3400 H           26.9996    37.3110   -23.9742 H             1 RES     
    3401 H           25.4986    38.2551   -23.8162 H             1 RES     
    3402 C           25.3850    36.6353   -25.2449 C             1 RES     
    3403 H           24.2972    36.5780   -25.2073 H             1 RES     
    3404 H           25.7982    35.6339   -25.3653 H             1 RES     
    3405 C           25.7922    37.4729   -26.3822 C             1 RES     
    3406 H           24.8900    38.0404   -26.2873 H             1 RES     
    3407 H           26.0052    37.3119   -27.4185 H             1 RES     
    3408 H           26.6010    38.0101   -25.9311 H             1 RES     
    3409 N           43.8178     5.4772     5.0000 N             1 RES     
    3410 C           43.6856     6.9378     5.2163 C             1 RES     
    3411 H           44.5051     7.5015     4.7226 H             1 RES     
    3412 H           43.7361     7.1874     6.3003 H             1 RES     
    3413 H           42.7147     7.3139     4.8234 H             1 RES     
    3414 C           45.1323     5.0185     5.5091 C             1 RES     
    3415 H           45.2678     3.9269     5.3400 H             1 RES     
    3416 H           45.2265     5.2100     6.6018 H             1 RES     
    3417 H           45.9720     5.5556     5.0194 H             1 RES     
    3418 C           42.7535     4.7929     5.7732 C             1 RES     
    3419 H           42.8334     5.0190     6.8606 H             1 RES     
    3420 H           42.8174     3.6877     5.6540 H             1 RES     
    3421 H           41.7421     5.1142     5.4364 H             1 RES     
    3422 C           43.6408     5.1240     3.5586 C             1 RES     
    3423 H           42.6311     5.4381     3.2097 H             1 RES     
    3424 H           43.7001     4.0200     3.4260 H             1 RES     
    3425 C           44.6621     5.7469     2.5960 C             1 RES     
    3426 H           45.6979     5.4044     2.7918 H             1 RES     
    3427 H           44.6055     6.8537     2.5707 H             1 RES     
    3428 P           43.6113     6.4145     0.4318 P             1 RES     
    3429 O           43.4735     6.0247    -1.1139 O             1 RES     
    3430 O           44.5575     5.3546     1.1676 O             1 RES     
    3431 O           44.2883     7.8632     0.4849 O             1 RES     
    3432 O           42.1410     6.3449     1.0592 O             1 RES     
    3433 C           42.5911     7.0272    -1.7631 C             1 RES     
    3434 H           43.0327     8.0187    -1.6628 H             1 RES     
    3435 H           41.6125     7.0145    -1.2830 H             1 RES     
    3436 C           43.2450     5.4152    -3.5797 C             1 RES     
    3437 H           44.2974     5.5897    -3.3557 H             1 RES     
    3438 H           42.8773     4.5856    -2.9759 H             1 RES     
    3439 C           42.4345     6.6840    -3.2561 C             1 RES     
    3440 H           41.3821     6.5095    -3.4801 H             1 RES     
    3441 C           44.2825     5.9150    -5.4006 C             1 RES     
    3442 O           44.9791     6.5548    -4.6142 O             1 RES     
    3443 O           43.0956     5.0876    -5.0049 O             1 RES     
    3444 C           44.4947     5.8470    -6.8131 C             1 RES     
    3445 H           43.6139     6.2231    -7.3334 H             1 RES     
    3446 H           44.6687     4.8088    -7.0959 H             1 RES     
    3447 C           45.7201     6.6961    -7.1991 C             1 RES     
    3448 H           46.6010     6.3200    -6.6788 H             1 RES     
    3449 H           45.5461     7.7343    -6.9162 H             1 RES     
    3450 C           45.9468     6.6099    -8.7199 C             1 RES     
    3451 H           45.0659     6.9860    -9.2402 H             1 RES     
    3452 H           46.1208     5.5717    -9.0027 H             1 RES     
    3453 C           47.1722     7.4590    -9.1059 C             1 RES     
    3454 H           48.0530     7.0829    -8.5856 H             1 RES     
    3455 H           46.9982     8.4972    -8.8231 H             1 RES     
    3456 C           47.3989     7.3728   -10.6267 C             1 RES     
    3457 H           46.5180     7.7489   -11.1470 H             1 RES     
    3458 H           47.5729     6.3346   -10.9096 H             1 RES     
    3459 C           48.6243     8.2219   -11.0127 C             1 RES     
    3460 H           49.5051     7.8458   -10.4924 H             1 RES     
    3461 H           48.4503     9.2601   -10.7299 H             1 RES     
    3462 C           48.8510     8.1357   -12.5335 C             1 RES     
    3463 H           47.9701     8.5118   -13.0538 H             1 RES     
    3464 H           49.0250     7.0975   -12.8164 H             1 RES     
    3465 C           50.0763     8.9848   -12.9196 C             1 RES     
    3466 H           50.9572     8.6087   -12.3993 H             1 RES     
    3467 H           49.9023    10.0230   -12.6367 H             1 RES     
    3468 C           50.3030     8.8986   -14.4403 C             1 RES     
    3469 H           49.4222     9.2747   -14.9606 H             1 RES     
    3470 H           50.4770     7.8604   -14.7232 H             1 RES     
    3471 C           51.5284     9.7477   -14.8264 C             1 RES     
    3472 H           52.4093     9.3716   -14.3061 H             1 RES     
    3473 H           51.3544    10.7859   -14.5435 H             1 RES     
    3474 C           51.7551     9.6615   -16.3472 C             1 RES     
    3475 H           50.8743    10.0376   -16.8675 H             1 RES     
    3476 H           51.9291     8.6233   -16.6300 H             1 RES     
    3477 C           52.9805    10.5106   -16.7332 C             1 RES     
    3478 H           53.8613    10.1345   -16.2129 H             1 RES     
    3479 H           52.8065    11.5488   -16.4503 H             1 RES     
    3480 C           53.2072    10.4244   -18.2540 C             1 RES     
    3481 H           52.3263    10.8005   -18.7743 H             1 RES     
    3482 H           53.3812     9.3862   -18.5368 H             1 RES     
    3483 C           54.4326    11.2735   -18.6400 C             1 RES     
    3484 H           55.3134    10.8974   -18.1197 H             1 RES     
    3485 H           54.2586    12.3117   -18.3572 H             1 RES     
    3486 C           54.6593    11.1873   -20.1608 C             1 RES     
    3487 H           53.7784    11.5634   -20.6811 H             1 RES     
    3488 H           54.8333    10.1491   -20.4437 H             1 RES     
    3489 C           55.8846    12.0364   -20.5468 C             1 RES     
    3490 H           56.7655    11.6603   -20.0265 H             1 RES     
    3491 H           55.7106    13.0746   -20.2640 H             1 RES     
    3492 C           56.1010    11.9541   -21.9985 C             1 RES     
    3493 H           56.7350    11.1041   -21.8558 H             1 RES     
    3494 H           56.5199    12.5896   -22.7508 H             1 RES     
    3495 H           55.1297    11.6271   -22.3080 H             1 RES     
    3496 C           42.4743     7.1229    -5.3250 C             1 RES     
    3497 O           41.9130     6.0313    -5.4051 O             1 RES     
    3498 O           42.9119     7.7610    -4.0400 O             1 RES     
    3499 C           42.7913     7.9635    -6.4375 C             1 RES     
    3500 H           43.8680     8.1291    -6.4751 H             1 RES     
    3501 H           42.2803     8.9187    -6.3171 H             1 RES     
    3502 C           42.3289     7.2956    -7.7459 C             1 RES     
    3503 H           41.2523     7.1301    -7.7082 H             1 RES     
    3504 H           42.8400     6.3404    -7.8662 H             1 RES     
    3505 C           42.6658     8.2113    -8.9374 C             1 RES     
    3506 H           43.7425     8.3769    -8.9750 H             1 RES     
    3507 H           42.1547     9.1666    -8.8170 H             1 RES     
    3508 C           42.2034     7.5435   -10.2457 C             1 RES     
    3509 H           41.1267     7.3779   -10.2081 H             1 RES     
    3510 H           42.7145     6.5883   -10.3661 H             1 RES     
    3511 C           42.5402     8.4592   -11.4372 C             1 RES     
    3512 H           43.6169     8.6248   -11.4749 H             1 RES     
    3513 H           42.0292     9.4144   -11.3169 H             1 RES     
    3514 C           42.0779     7.7913   -12.7456 C             1 RES     
    3515 H           41.0012     7.6258   -12.7079 H             1 RES     
    3516 H           42.5889     6.8361   -12.8660 H             1 RES     
    3517 C           42.4147     8.7070   -13.9371 C             1 RES     
    3518 H           43.4914     8.8726   -13.9747 H             1 RES     
    3519 H           41.9036     9.6623   -13.8167 H             1 RES     
    3520 C           41.9523     8.0392   -15.2454 C             1 RES     
    3521 H           40.8756     7.8736   -15.2078 H             1 RES     
    3522 H           42.4634     7.0840   -15.3658 H             1 RES     
    3523 C           42.2891     8.9549   -16.4369 C             1 RES     
    3524 H           43.3658     9.1205   -16.4746 H             1 RES     
    3525 H           41.7781     9.9101   -16.3166 H             1 RES     
    3526 C           41.8268     8.2870   -17.7453 C             1 RES     
    3527 H           40.7501     8.1215   -17.7077 H             1 RES     
    3528 H           42.3378     7.3318   -17.8657 H             1 RES     
    3529 C           42.1636     9.2027   -18.9368 C             1 RES     
    3530 H           43.2403     9.3683   -18.9745 H             1 RES     
    3531 H           41.6526    10.1580   -18.8164 H             1 RES     
    3532 C           41.7012     8.5349   -20.2452 C             1 RES     
    3533 H           40.6246     8.3693   -20.2075 H             1 RES     
    3534 H           42.2123     7.5797   -20.3655 H             1 RES     
    3535 C           42.0381     9.4506   -21.4367 C             1 RES     
    3536 H           43.1148     9.6162   -21.4743 H             1 RES     
    3537 H           41.5270    10.4058   -21.3163 H             1 RES     
    3538 C           41.5757     8.7827   -22.7450 C             1 RES     
    3539 H           40.4990     8.6172   -22.7074 H             1 RES     
    3540 H           42.0868     7.8275   -22.8654 H             1 RES     
    3541 C           41.9125     9.6984   -23.9365 C             1 RES     
    3542 H           42.9892     9.8640   -23.9742 H             1 RES     
    3543 H           41.4015    10.6537   -23.8162 H             1 RES     
    3544 C           41.4502     9.0306   -25.2449 C             1 RES     
    3545 H           40.3735     8.8650   -25.2073 H             1 RES     
    3546 H           41.9612     8.0754   -25.3653 H             1 RES     
    3547 C           41.7717     9.9047   -26.3822 C             1 RES     
    3548 H           40.8174    10.3793   -26.2873 H             1 RES     
    3549 H           41.9997     9.7657   -27.4185 H             1 RES     
    3550 H           42.5228    10.5199   -25.9311 H             1 RES     
    3551 N            0.0000    27.3861     5.0000 N             1 RES     
    3552 C            0.4019    28.7965     5.2163 C             1 RES     
    3553 H            1.3693    29.0277     4.7226 H             1 RES     
    3554 H            0.5388    29.0112     6.3003 H             1 RES     
    3555 H           -0.3688    29.4966     4.8234 H             1 RES     
    3556 C            1.0616    26.4854     5.5091 C             1 RES     
    3557 H            0.7955    25.4181     5.3400 H             1 RES     
    3558 H            1.2184    26.6302     6.6018 H             1 RES     
    3559 H            2.0382    26.6845     5.0194 H             1 RES     
    3560 C           -1.2391    27.1304     5.7732 C             1 RES     
    3561 H           -1.0833    27.3126     6.8606 H             1 RES     
    3562 H           -1.5771    26.0761     5.6540 H             1 RES     
    3563 H           -2.0674    27.7939     5.4364 H             1 RES     
    3564 C           -0.2922    27.1202     3.5586 C             1 RES     
    3565 H           -1.1214    27.7765     3.2097 H             1 RES     
    3566 H           -0.6339    26.0687     3.4260 H             1 RES     
    3567 C            0.8848    27.3341     2.5960 C             1 RES     
    3568 H            1.7281    26.6420     2.7918 H             1 RES     
    3569 H            1.2300    28.3872     2.5707 H             1 RES     
    3570 P            0.1443    28.3349     0.4318 P             1 RES     
    3571 O           -0.1244    28.0208    -1.1139 O             1 RES     
    3572 O            0.6461    27.0057     1.1676 O             1 RES     
    3573 O            1.2971    29.4432     0.4849 O             1 RES     
    3574 O           -1.2525    28.7988     1.0592 O             1 RES     
    3575 C           -0.5872    29.2736    -1.7631 C             1 RES     
    3576 H            0.1814    30.0399    -1.6628 H             1 RES     
    3577 H           -1.5049    29.6137    -1.2830 H             1 RES     
    3578 C           -0.5567    27.5342    -3.5797 C             1 RES     
    3579 H            0.4880    27.3186    -3.3557 H             1 RES     
    3580 H           -1.1983    26.8924    -2.9759 H             1 RES     
    3581 C           -0.8568    29.0096    -3.2561 C             1 RES     
    3582 H           -1.9015    29.2253    -3.4801 H             1 RES     
    3583 C            0.5910    27.6275    -5.4006 C             1 RES     
    3584 O            1.4711    27.9740    -4.6142 O             1 RES     
    3585 O           -0.8141    27.2823    -5.0049 O             1 RES     
    3586 C            0.7646    27.4877    -6.8131 C             1 RES     
    3587 H            0.0780    28.1555    -7.3334 H             1 RES     
    3588 H            0.5536    26.4564    -7.0959 H             1 RES     
    3589 C            2.2134    27.8393    -7.1991 C             1 RES     
    3590 H            2.9000    27.1716    -6.6788 H             1 RES     
    3591 H            2.4244    28.8706    -6.9162 H             1 RES     
    3592 C            2.3939    27.6773    -8.7199 C             1 RES     
    3593 H            1.7072    28.3451    -9.2402 H             1 RES     
    3594 H            2.1829    26.6461    -9.0027 H             1 RES     
    3595 C            3.8427    28.0290    -9.1059 C             1 RES     
    3596 H            4.5293    27.3612    -8.5856 H             1 RES     
    3597 H            4.0537    29.0603    -8.8231 H             1 RES     
    3598 C            4.0232    27.8670   -10.6267 C             1 RES     
    3599 H            3.3365    28.5347   -11.1470 H             1 RES     
    3600 H            3.8122    26.8357   -10.9096 H             1 RES     
    3601 C            5.4720    28.2186   -11.0127 C             1 RES     
    3602 H            6.1586    27.5509   -10.4924 H             1 RES     
    3603 H            5.6830    29.2499   -10.7299 H             1 RES     
    3604 C            5.6525    28.0566   -12.5335 C             1 RES     
    3605 H            4.9658    28.7244   -13.0538 H             1 RES     
    3606 H            5.4415    27.0253   -12.8164 H             1 RES     
    3607 C            7.1012    28.4083   -12.9196 C             1 RES     
    3608 H            7.7879    27.7405   -12.3993 H             1 RES     
    3609 H            7.3122    29.4396   -12.6367 H             1 RES     
    3610 C            7.2818    28.2463   -14.4403 C             1 RES     
    3611 H            6.5951    28.9140   -14.9606 H             1 RES     
    3612 H            7.0708    27.2150   -14.7232 H             1 RES     
    3613 C            8.7305    28.5979   -14.8264 C             1 RES     
    3614 H            9.4172    27.9302   -14.3061 H             1 RES     
    3615 H            8.9415    29.6292   -14.5435 H             1 RES     
    3616 C            8.9111    28.4359   -16.3472 C             1 RES     
    3617 H            8.2244    29.1037   -16.8675 H             1 RES     
    3618 H            8.7001    27.4046   -16.6300 H             1 RES     
    3619 C           10.3598    28.7876   -16.7332 C             1 RES     
    3620 H           11.0465    28.1198   -16.2129 H             1 RES     
    3621 H           10.5708    29.8189   -16.4503 H             1 RES     
    3622 C           10.5403    28.6256   -18.2540 C             1 RES     
    3623 H            9.8537    29.2933   -18.7743 H             1 RES     
    3624 H           10.3293    27.5943   -18.5368 H             1 RES     
    3625 C           11.9891    28.9772   -18.6400 C             1 RES     
    3626 H           12.6758    28.3094   -18.1197 H             1 RES     
    3627 H           12.2001    30.0085   -18.3572 H             1 RES     
    3628 C           12.1696    28.8152   -20.1608 C             1 RES     
    3629 H           11.4830    29.4830   -20.6811 H             1 RES     
    3630 H           11.9586    27.7839   -20.4437 H             1 RES     
    3631 C           13.6184    29.1668   -20.5468 C             1 RES     
    3632 H           14.3051    28.4991   -20.0265 H             1 RES     
    3633 H           13.8294    30.1981   -20.2640 H             1 RES     
    3634 C           13.7907    29.0122   -21.9985 C             1 RES     
    3635 H           14.0766    27.9910   -21.8558 H             1 RES     
    3636 H           14.4101    29.4545   -22.7508 H             1 RES     
    3637 H           12.7668    29.0564   -22.3080 H             1 RES     
    3638 C           -0.6618    29.4049    -5.3250 C             1 RES     
    3639 O           -1.5780    28.5882    -5.4051 O             1 RES     
    3640 O           -0.0240    29.8429    -4.0400 O             1 RES     
    3641 C           -0.0637    30.0752    -6.4375 C             1 RES     
    3642 H            1.0005    29.8425    -6.4751 H             1 RES     
    3643 H           -0.1970    31.1503    -6.3171 H             1 RES     
    3644 C           -0.7353    29.6183    -7.7459 C             1 RES     
    3645 H           -1.7995    29.8510    -7.7082 H             1 RES     
    3646 H           -0.6020    28.5432    -7.8662 H             1 RES     
    3647 C           -0.0917    30.3516    -8.9374 C             1 RES     
    3648 H            0.9725    30.1189    -8.9750 H             1 RES     
    3649 H           -0.2250    31.4267    -8.8170 H             1 RES     
    3650 C           -0.7633    29.8947   -10.2457 C             1 RES     
    3651 H           -1.8275    30.1274   -10.2081 H             1 RES     
    3652 H           -0.6300    28.8196   -10.3661 H             1 RES     
    3653 C           -0.1197    30.6280   -11.4372 C             1 RES     
    3654 H            0.9445    30.3953   -11.4749 H             1 RES     
    3655 H           -0.2530    31.7031   -11.3169 H             1 RES     
    3656 C           -0.7913    30.1712   -12.7456 C             1 RES     
    3657 H           -1.8555    30.4039   -12.7079 H             1 RES     
    3658 H           -0.6580    29.0961   -12.8660 H             1 RES     
    3659 C           -0.1477    30.9045   -13.9371 C             1 RES     
    3660 H            0.9165    30.6717   -13.9747 H             1 RES     
    3661 H           -0.2810    31.9796   -13.8167 H             1 RES     
    3662 C           -0.8193    30.4476   -15.2454 C             1 RES     
    3663 H           -1.8835    30.6803   -15.2078 H             1 RES     
    3664 H           -0.6860    29.3725   -15.3658 H             1 RES     
    3665 C           -0.1757    31.1809   -16.4369 C             1 RES     
    3666 H            0.8885    30.9482   -16.4746 H             1 RES     
    3667 H           -0.3090    32.2560   -16.3166 H             1 RES     
    3668 C           -0.8473    30.7240   -17.7453 C             1 RES     
    3669 H           -1.9115    30.9567   -17.7077 H             1 RES     
    3670 H           -0.7140    29.6489   -17.8657 H             1 RES     
    3671 C           -0.2037    31.4573   -18.9368 C             1 RES     
    3672 H            0.8605    31.2246   -18.9745 H             1 RES     
    3673 H           -0.3370    32.5324   -18.8164 H             1 RES     
    3674 C           -0.8753    31.0004   -20.2452 C             1 RES     
    3675 H           -1.9395    31.2331   -20.2075 H             1 RES     
    3676 H           -0.7420    29.9253   -20.3655 H             1 RES     
    3677 C           -0.2317    31.7337   -21.4367 C             1 RES     
    3678 H            0.8325    31.5010   -21.4743 H             1 RES     
    3679 H           -0.3650    32.8088   -21.3163 H             1 RES     
    3680 C           -0.9033    31.2768   -22.7450 C             1 RES     
    3681 H           -1.9675    31.5095   -22.7074 H             1 RES     
    3682 H           -0.7700    30.2017   -22.8654 H             1 RES     
    3683 C           -0.2597    32.0101   -23.9365 C             1 RES     
    3684 H            0.8045    31.7774   -23.9742 H             1 RES     
    3685 H           -0.3930    33.0852   -23.8162 H             1 RES     
    3686 C           -0.9313    31.5532   -25.2449 C             1 RES     
    3687 H           -1.9955    31.7859   -25.2073 H             1 RES     
    3688 H           -0.7980    30.4781   -25.3653 H             1 RES     
    3689 C           -0.3170    32.2532   -26.3822 C             1 RES     
    3690 H           -1.0367    33.0392   -26.2873 H             1 RES     
    3691 H           -0.1542    32.0415   -27.4185 H             1 RES     
    3692 H            0.6052    32.5571   -25.9311 H             1 RES     
    3693 N           49.2950    38.3406     5.0000 N             1 RES     
    3694 C           49.3878    39.8041     5.2163 C             1 RES     
    3695 H           50.2839    40.2359     4.7226 H             1 RES     
    3696 H           49.4759    40.0431     6.3003 H             1 RES     
    3697 H           48.4859    40.3244     4.8234 H             1 RES     
    3698 C           50.5239    37.6862     5.5091 C             1 RES     
    3699 H           50.4908    36.5867     5.3400 H             1 RES     
    3700 H           50.6463    37.8610     6.6018 H             1 RES     
    3701 H           51.4358    38.0885     5.0194 H             1 RES     
    3702 C           48.1386    37.8271     5.7732 C             1 RES     
    3703 H           48.2521    38.0384     6.8606 H             1 RES     
    3704 H           48.0326    36.7252     5.6540 H             1 RES     
    3705 H           47.1882    38.2994     5.4364 H             1 RES     
    3706 C           49.0660    38.0186     3.5586 C             1 RES     
    3707 H           48.1163    38.4835     3.2097 H             1 RES     
    3708 H           48.9558    36.9185     3.4260 H             1 RES     
    3709 C           50.1706    38.4779     2.5960 C             1 RES     
    3710 H           51.1419    37.9810     2.7918 H             1 RES     
    3711 H           50.2840    39.5804     2.5707 H             1 RES     
    3712 P           49.2343    39.2984     0.4318 P             1 RES     
    3713 O           49.0385    38.9343    -1.1139 O             1 RES     
    3714 O           50.0072    38.1063     1.1676 O             1 RES     
    3715 O           50.1250    40.6265     0.4849 O             1 RES     
    3716 O           47.7707    39.4545     1.0592 O             1 RES     
    3717 C           48.3198    40.0600    -1.7631 C             1 RES     
    3718 H           48.9079    40.9722    -1.6628 H             1 RES     
    3719 H           47.3509    40.1971    -1.2830 H             1 RES     
    3720 C           48.7195    38.3669    -3.5797 C             1 RES     
    3721 H           49.7862    38.3784    -3.3557 H             1 RES     
    3722 H           48.2292    37.6033    -2.9759 H             1 RES     
    3723 C           48.1125    39.7447    -3.2561 C             1 RES     
    3724 H           47.0459    39.7332    -3.4801 H             1 RES     
    3725 C           49.8212    38.7021    -5.4006 C             1 RES     
    3726 O           50.6074    39.2278    -4.6142 O             1 RES     
    3727 O           48.5217    38.0660    -5.0049 O             1 RES     
    3728 C           50.0205    38.6024    -6.8131 C             1 RES     
    3729 H           49.2076    39.1089    -7.3334 H             1 RES     
    3730 H           50.0337    37.5499    -7.0959 H             1 RES     
    3731 C           51.3614    39.2541    -7.1991 C             1 RES     
    3732 H           52.1743    38.7477    -6.6788 H             1 RES     
    3733 H           51.3482    40.3067    -6.9162 H             1 RES     
    3734 C           51.5722    39.1342    -8.7199 C             1 RES     
    3735 H           50.7593    39.6407    -9.2402 H             1 RES     
    3736 H           51.5854    38.0817    -9.0027 H             1 RES     
    3737 C           52.9131    39.7859    -9.1059 C             1 RES     
    3738 H           53.7260    39.2795    -8.5856 H             1 RES     
    3739 H           52.8999    40.8385    -8.8231 H             1 RES     
    3740 C           53.1239    39.6661   -10.6267 C             1 RES     
    3741 H           52.3110    40.1725   -11.1470 H             1 RES     
    3742 H           53.1371    38.6135   -10.9096 H             1 RES     
    3743 C           54.4648    40.3177   -11.0127 C             1 RES     
    3744 H           55.2777    39.8113   -10.4924 H             1 RES     
    3745 H           54.4516    41.3703   -10.7299 H             1 RES     
    3746 C           54.6756    40.1979   -12.5335 C             1 RES     
    3747 H           53.8627    40.7043   -13.0538 H             1 RES     
    3748 H           54.6888    39.1453   -12.8164 H             1 RES     
    3749 C           56.0165    40.8496   -12.9196 C             1 RES     
    3750 H           56.8294    40.3431   -12.3993 H             1 RES     
    3751 H           56.0033    41.9021   -12.6367 H             1 RES     
    3752 C           56.2273    40.7297   -14.4403 C             1 RES     
    3753 H           55.4143    41.2361   -14.9606 H             1 RES     
    3754 H           56.2404    39.6771   -14.7232 H             1 RES     
    3755 C           57.5681    41.3814   -14.8264 C             1 RES     
    3756 H           58.3811    40.8749   -14.3061 H             1 RES     
    3757 H           57.5550    42.4339   -14.5435 H             1 RES     
    3758 C           57.7790    41.2615   -16.3472 C             1 RES     
    3759 H           56.9660    41.7679   -16.8675 H             1 RES     
    3760 H           57.7921    40.2089   -16.6300 H             1 RES     
    3761 C           59.1198    41.9132   -16.7332 C             1 RES     
    3762 H           59.9328    41.4067   -16.2129 H             1 RES     
    3763 H           59.1067    42.9657   -16.4503 H             1 RES     
    3764 C           59.3307    41.7933   -18.2540 C             1 RES     
    3765 H           58.5177    42.2997   -18.7743 H             1 RES     
    3766 H           59.3438    40.7407   -18.5368 H             1 RES     
    3767 C           60.6715    42.4450   -18.6400 C             1 RES     
    3768 H           61.4845    41.9385   -18.1197 H             1 RES     
    3769 H           60.6584    43.4975   -18.3572 H             1 RES     
    3770 C           60.8824    42.3251   -20.1608 C             1 RES     
    3771 H           60.0694    42.8315   -20.6811 H             1 RES     
    3772 H           60.8955    41.2725   -20.4437 H             1 RES     
    3773 C           62.2232    42.9768   -20.5468 C             1 RES     
    3774 H           63.0362    42.4703   -20.0265 H             1 RES     
    3775 H           62.2100    44.0294   -20.2640 H             1 RES     
    3776 C           62.4245    42.8623   -21.9985 C             1 RES     
    3777 H           62.9210    41.9253   -21.8558 H             1 RES     
    3778 H           62.9356    43.4263   -22.7508 H             1 RES     
    3779 H           61.4145    42.6877   -22.3080 H             1 RES     
    3780 C           48.2191    40.1724    -5.3250 C             1 RES     
    3781 O           47.4974    39.1795    -5.4051 O             1 RES     
    3782 O           48.7491    40.7360    -4.0400 O             1 RES     
    3783 C           48.6609    40.9546    -6.4375 C             1 RES     
    3784 H           49.7503    40.9535    -6.4751 H             1 RES     
    3785 H           48.3020    41.9767    -6.3171 H             1 RES     
    3786 C           48.1019    40.3653    -7.7459 C             1 RES     
    3787 H           47.0125    40.3664    -7.7082 H             1 RES     
    3788 H           48.4608    39.3432    -7.8662 H             1 RES     
    3789 C           48.5748    41.2187    -8.9374 C             1 RES     
    3790 H           49.6641    41.2177    -8.9750 H             1 RES     
    3791 H           48.2159    42.2409    -8.8170 H             1 RES     
    3792 C           48.0157    40.6295   -10.2457 C             1 RES     
    3793 H           46.9264    40.6305   -10.2081 H             1 RES     
    3794 H           48.3746    39.6073   -10.3661 H             1 RES     
    3795 C           48.4886    41.4829   -11.4372 C             1 RES     
    3796 H           49.5780    41.4818   -11.4749 H             1 RES     
    3797 H           48.1297    42.5050   -11.3169 H             1 RES     
    3798 C           47.9296    40.8936   -12.7456 C             1 RES     
    3799 H           46.8402    40.8947   -12.7079 H             1 RES     
    3800 H           48.2885    39.8715   -12.8660 H             1 RES     
    3801 C           48.4025    41.7470   -13.9371 C             1 RES     
    3802 H           49.4918    41.7460   -13.9747 H             1 RES     
    3803 H           48.0436    42.7692   -13.8167 H             1 RES     
    3804 C           47.8434    41.1578   -15.2454 C             1 RES     
    3805 H           46.7541    41.1588   -15.2078 H             1 RES     
    3806 H           48.2023    40.1356   -15.3658 H             1 RES     
    3807 C           48.3163    42.0111   -16.4369 C             1 RES     
    3808 H           49.4057    42.0101   -16.4746 H             1 RES     
    3809 H           47.9574    43.0333   -16.3166 H             1 RES     
    3810 C           47.7573    41.4219   -17.7453 C             1 RES     
    3811 H           46.6679    41.4230   -17.7077 H             1 RES     
    3812 H           48.1162    40.3997   -17.8657 H             1 RES     
    3813 C           48.2302    42.2753   -18.9368 C             1 RES     
    3814 H           49.3195    42.2742   -18.9745 H             1 RES     
    3815 H           47.8713    43.2974   -18.8164 H             1 RES     
    3816 C           47.6711    41.6860   -20.2452 C             1 RES     
    3817 H           46.5818    41.6871   -20.2075 H             1 RES     
    3818 H           48.0300    40.6639   -20.3655 H             1 RES     
    3819 C           48.1440    42.5394   -21.4367 C             1 RES     
    3820 H           49.2334    42.5384   -21.4743 H             1 RES     
    3821 H           47.7851    43.5616   -21.3163 H             1 RES     
    3822 C           47.5850    41.9502   -22.7450 C             1 RES     
    3823 H           46.4956    41.9512   -22.7074 H             1 RES     
    3824 H           47.9439    40.9280   -22.8654 H             1 RES     
    3825 C           48.0579    42.8036   -23.9365 C             1 RES     
    3826 H           49.1472    42.8025   -23.9742 H             1 RES     
    3827 H           47.6990    43.8257   -23.8162 H             1 RES     
    3828 C           47.4988    42.2143   -25.2449 C             1 RES     
    3829 H           46.4095    42.2154   -25.2073 H             1 RES     
    3830 H           47.8577    41.1922   -25.3653 H             1 RES     
    3831 C           47.9502    43.0289   -26.3822 C             1 RES     
    3832 H           47.0798    43.6439   -26.2873 H             1 RES     
    3833 H           48.1543    42.8567   -27.4185 H             1 RES     
    3834 H           48.7866    43.5220   -25.9311 H             1 RES     
    3835 N            0.0000    21.9089     5.0000 N             1 RES     
    3836 C            0.1685    23.3657     5.2163 C             1 RES     
    3837 H            1.0858    23.7504     4.7226 H             1 RES     
    3838 H            0.2689    23.5997     6.3003 H             1 RES     
    3839 H           -0.7053    23.9320     4.8234 H             1 RES     
    3840 C            1.1933    21.1917     5.5091 C             1 RES     
    3841 H            1.1033    20.0954     5.3400 H             1 RES     
    3842 H            1.3246    21.3600     6.6018 H             1 RES     
    3843 H            2.1249    21.5462     5.0194 H             1 RES     
    3844 C           -1.1815    21.4561     5.7732 C             1 RES     
    3845 H           -1.0572    21.6611     6.8606 H             1 RES     
    3846 H           -1.3444    20.3611     5.6540 H             1 RES     
    3847 H           -2.1061    21.9770     5.4364 H             1 RES     
    3848 C           -0.2454    21.5992     3.5586 C             1 RES     
    3849 H           -1.1697    22.1127     3.2097 H             1 RES     
    3850 H           -0.4125    20.5063     3.4260 H             1 RES     
    3851 C            0.8815    22.0007     2.5960 C             1 RES     
    3852 H            1.8257    21.4541     2.7918 H             1 RES     
    3853 H            1.0519    23.0958     2.5707 H             1 RES     
    3854 P           -0.0110    22.8686     0.4318 P             1 RES     
    3855 O           -0.2254    22.5151    -1.1139 O             1 RES     
    3856 O            0.6991    21.6380     1.1676 O             1 RES     
    3857 O            0.9473    24.1487     0.4849 O             1 RES     
    3858 O           -1.4645    23.1003     1.0592 O             1 RES     
    3859 C           -0.8848    23.6765    -1.7631 C             1 RES     
    3860 H           -0.2502    24.5571    -1.6628 H             1 RES     
    3861 H           -1.8453    23.8637    -1.2830 H             1 RES     
    3862 C           -0.5734    21.9650    -3.5797 C             1 RES     
    3863 H            0.4925    21.9212    -3.3557 H             1 RES     
    3864 H           -1.1027    21.2278    -2.9759 H             1 RES     
    3865 C           -1.1081    23.3725    -3.2561 C             1 RES     
    3866 H           -2.1740    23.4163    -3.4801 H             1 RES     
    3867 C            0.5442    22.2426    -5.4006 C             1 RES     
    3868 O            1.3566    22.7269    -4.6142 O             1 RES     
    3869 O           -0.7865    21.6747    -5.0049 O             1 RES     
    3870 C            0.7381    22.1328    -6.8131 C             1 RES     
    3871 H           -0.0475    22.6807    -7.3334 H             1 RES     
    3872 H            0.6967    21.0810    -7.0959 H             1 RES     
    3873 C            2.1109    22.7141    -7.1991 C             1 RES     
    3874 H            2.8965    22.1662    -6.6788 H             1 RES     
    3875 H            2.1524    23.7660    -6.9162 H             1 RES     
    3876 C            2.3153    22.5835    -8.7199 C             1 RES     
    3877 H            1.5297    23.1314    -9.2402 H             1 RES     
    3878 H            2.2739    21.5316    -9.0027 H             1 RES     
    3879 C            3.6881    23.1648    -9.1059 C             1 RES     
    3880 H            4.4737    22.6169    -8.5856 H             1 RES     
    3881 H            3.7295    24.2167    -8.8231 H             1 RES     
    3882 C            3.8924    23.0341   -10.6267 C             1 RES     
    3883 H            3.1068    23.5821   -11.1470 H             1 RES     
    3884 H            3.8510    21.9823   -10.9096 H             1 RES     
    3885 C            5.2653    23.6155   -11.0127 C             1 RES     
    3886 H            6.0509    23.0676   -10.4924 H             1 RES     
    3887 H            5.3067    24.6673   -10.7299 H             1 RES     
    3888 C            5.4696    23.4848   -12.5335 C             1 RES     
    3889 H            4.6840    24.0327   -13.0538 H             1 RES     
    3890 H            5.4282    22.4330   -12.8164 H             1 RES     
    3891 C            6.8424    24.0661   -12.9196 C             1 RES     
    3892 H            7.6280    23.5182   -12.3993 H             1 RES     
    3893 H            6.8838    25.1180   -12.6367 H             1 RES     
    3894 C            7.0468    23.9355   -14.4403 C             1 RES     
    3895 H            6.2612    24.4834   -14.9606 H             1 RES     
    3896 H            7.0053    22.8836   -14.7232 H             1 RES     
    3897 C            8.4196    24.5168   -14.8264 C             1 RES     
    3898 H            9.2052    23.9689   -14.3061 H             1 RES     
    3899 H            8.4610    25.5687   -14.5435 H             1 RES     
    3900 C            8.6239    24.3862   -16.3472 C             1 RES     
    3901 H            7.8383    24.9341   -16.8675 H             1 RES     
    3902 H            8.5825    23.3343   -16.6300 H             1 RES     
    3903 C            9.9968    24.9675   -16.7332 C             1 RES     
    3904 H           10.7824    24.4196   -16.2129 H             1 RES     
    3905 H           10.0382    26.0193   -16.4503 H             1 RES     
    3906 C           10.2011    24.8368   -18.2540 C             1 RES     
    3907 H            9.4155    25.3847   -18.7743 H             1 RES     
    3908 H           10.1597    23.7850   -18.5368 H             1 RES     
    3909 C           11.5739    25.4182   -18.6400 C             1 RES     
    3910 H           12.3595    24.8702   -18.1197 H             1 RES     
    3911 H           11.6153    26.4700   -18.3572 H             1 RES     
    3912 C           11.7783    25.2875   -20.1608 C             1 RES     
    3913 H           10.9926    25.8354   -20.6811 H             1 RES     
    3914 H           11.7368    24.2357   -20.4437 H             1 RES     
    3915 C           13.1511    25.8688   -20.5468 C             1 RES     
    3916 H           13.9367    25.3209   -20.0265 H             1 RES     
    3917 H           13.1925    26.9207   -20.2640 H             1 RES     
    3918 C           13.3461    25.7441   -21.9985 C             1 RES     
    3919 H           13.7934    24.7826   -21.8558 H             1 RES     
    3920 H           13.8858    26.2808   -22.7508 H             1 RES     
    3921 H           12.3285    25.6221   -22.3080 H             1 RES     
    3922 C           -0.9796    23.7940    -5.3250 C             1 RES     
    3923 O           -1.7517    22.8399    -5.4051 O             1 RES     
    3924 O           -0.4210    24.3294    -4.0400 O             1 RES     
    3925 C           -0.4978    24.5523    -6.4375 C             1 RES     
    3926 H            0.5901    24.4948    -6.4751 H             1 RES     
    3927 H           -0.8032    25.5917    -6.3171 H             1 RES     
    3928 C           -1.0866    23.9928    -7.7459 C             1 RES     
    3929 H           -2.1745    24.0503    -7.7082 H             1 RES     
    3930 H           -0.7812    22.9534    -7.8662 H             1 RES     
    3931 C           -0.5701    24.8205    -8.9374 C             1 RES     
    3932 H            0.5177    24.7630    -8.9750 H             1 RES     
    3933 H           -0.8756    25.8599    -8.8170 H             1 RES     
    3934 C           -1.1590    24.2610   -10.2457 C             1 RES     
    3935 H           -2.2468    24.3185   -10.2081 H             1 RES     
    3936 H           -0.8535    23.2217   -10.3661 H             1 RES     
    3937 C           -0.6425    25.0888   -11.4372 C             1 RES     
    3938 H            0.4454    25.0313   -11.4749 H             1 RES     
    3939 H           -0.9479    26.1281   -11.3169 H             1 RES     
    3940 C           -1.2313    24.5293   -12.7456 C             1 RES     
    3941 H           -2.3192    24.5868   -12.7079 H             1 RES     
    3942 H           -0.9259    23.4899   -12.8660 H             1 RES     
    3943 C           -0.7148    25.3570   -13.9371 C             1 RES     
    3944 H            0.3730    25.2995   -13.9747 H             1 RES     
    3945 H           -1.0203    26.3964   -13.8167 H             1 RES     
    3946 C           -1.3037    24.7975   -15.2454 C             1 RES     
    3947 H           -2.3915    24.8550   -15.2078 H             1 RES     
    3948 H           -0.9982    23.7581   -15.3658 H             1 RES     
    3949 C           -0.7872    25.6253   -16.4369 C             1 RES     
    3950 H            0.3007    25.5677   -16.4746 H             1 RES     
    3951 H           -1.0926    26.6646   -16.3166 H             1 RES     
    3952 C           -1.3760    25.0658   -17.7453 C             1 RES     
    3953 H           -2.4638    25.1233   -17.7077 H             1 RES     
    3954 H           -1.0706    24.0264   -17.8657 H             1 RES     
    3955 C           -0.8595    25.8935   -18.9368 C             1 RES     
    3956 H            0.2283    25.8360   -18.9745 H             1 RES     
    3957 H           -1.1650    26.9329   -18.8164 H             1 RES     
    3958 C           -1.4484    25.3340   -20.2452 C             1 RES     
    3959 H           -2.5362    25.3915   -20.2075 H             1 RES     
    3960 H           -1.1429    24.2946   -20.3655 H             1 RES     
    3961 C           -0.9318    26.1618   -21.4367 C             1 RES     
    3962 H            0.1560    26.1042   -21.4743 H             1 RES     
    3963 H           -1.2373    27.2011   -21.3163 H             1 RES     
    3964 C           -1.5207    25.6023   -22.7450 C             1 RES     
    3965 H           -2.6085    25.6598   -22.7074 H             1 RES     
    3966 H           -1.2152    24.5629   -22.8654 H             1 RES     
    3967 C           -1.0042    26.4300   -23.9365 C             1 RES     
    3968 H            0.0836    26.3725   -23.9742 H             1 RES     
    3969 H           -1.3096    27.4694   -23.8162 H             1 RES     
    3970 C           -1.5930    25.8705   -25.2449 C             1 RES     
    3971 H           -2.6809    25.9280   -25.2073 H             1 RES     
    3972 H           -1.2876    24.8311   -25.3653 H             1 RES     
    3973 C           -1.1000    26.6606   -26.3822 C             1 RES     
    3974 H           -1.9374    27.3199   -26.2873 H             1 RES     
    3975 H           -0.9051    26.4780   -27.4185 H             1 RES     
    3976 H           -0.2392    27.1097   -25.9311 H             1 RES     
    3977 N           49.2950    43.8178     5.0000 N             1 RES     
    3978 C           49.1690    45.2789     5.2163 C             1 RES     
    3979 H           49.9908    45.8391     4.7226 H             1 RES     
    3980 H           49.2205    45.5283     6.3003 H             1 RES     
    3981 H           48.1997    45.6591     4.8234 H             1 RES     
    3982 C           50.6076    43.3536     5.5091 C             1 RES     
    3983 H           50.7385    42.2614     5.3400 H             1 RES     
    3984 H           50.7026    43.5447     6.6018 H             1 RES     
    3985 H           51.4495    43.8871     5.0194 H             1 RES     
    3986 C           48.2279    43.1380     5.7732 C             1 RES     
    3987 H           48.3087    43.3637     6.8606 H             1 RES     
    3988 H           48.2871    42.0325     5.6540 H             1 RES     
    3989 H           47.2178    43.4635     5.4364 H             1 RES     
    3990 C           49.1165    43.4653     3.5586 C             1 RES     
    3991 H           48.1081    43.7837     3.2097 H             1 RES     
    3992 H           49.1712    42.3610     3.4260 H             1 RES     
    3993 C           50.1404    44.0839     2.5960 C             1 RES     
    3994 H           51.1748    43.7371     2.7918 H             1 RES     
    3995 H           50.0885    45.1910     2.5707 H             1 RES     
    3996 P           49.0924    44.7559     0.4318 P             1 RES     
    3997 O           48.9530    44.3667    -1.1139 O             1 RES     
    3998 O           50.0342    43.6921     1.1676 O             1 RES     
    3999 O           49.7756    46.2018     0.4849 O             1 RES     
    4000 O           47.6219    44.6925     1.0592 O             1 RES     
    4001 C           48.0748    45.3729    -1.7631 C             1 RES     
    4002 H           48.5206    46.3625    -1.6628 H             1 RES     
    4003 H           47.0962    45.3643    -1.2830 H             1 RES     
    4004 C           48.7220    43.7582    -3.5797 C             1 RES     
    4005 H           49.7751    43.9283    -3.3557 H             1 RES     
    4006 H           48.3508    42.9301    -2.9759 H             1 RES     
    4007 C           47.9167    45.0303    -3.2561 C             1 RES     
    4008 H           46.8637    44.8602    -3.4801 H             1 RES     
    4009 C           49.7616    44.2536    -5.4006 C             1 RES     
    4010 O           50.4608    44.8905    -4.6142 O             1 RES     
    4011 O           48.5712    43.4312    -5.0049 O             1 RES     
    4012 C           49.9735    44.1847    -6.8131 C             1 RES     
    4013 H           49.0942    44.5646    -7.3334 H             1 RES     
    4014 H           50.1431    43.1458    -7.0959 H             1 RES     
    4015 C           51.2024    45.0287    -7.1991 C             1 RES     
    4016 H           52.0817    44.6489    -6.6788 H             1 RES     
    4017 H           51.0328    46.0676    -6.9162 H             1 RES     
    4018 C           51.4288    44.9415    -8.7199 C             1 RES     
    4019 H           50.5495    45.3214    -9.2402 H             1 RES     
    4020 H           51.5984    43.9026    -9.0027 H             1 RES     
    4021 C           52.6577    45.7855    -9.1059 C             1 RES     
    4022 H           53.5370    45.4057    -8.5856 H             1 RES     
    4023 H           52.4880    46.8244    -8.8231 H             1 RES     
    4024 C           52.8840    45.6983   -10.6267 C             1 RES     
    4025 H           52.0048    46.0782   -11.1470 H             1 RES     
    4026 H           53.0537    44.6594   -10.9096 H             1 RES     
    4027 C           54.1130    46.5423   -11.0127 C             1 RES     
    4028 H           54.9922    46.1625   -10.4924 H             1 RES     
    4029 H           53.9433    47.5812   -10.7299 H             1 RES     
    4030 C           54.3393    46.4551   -12.5335 C             1 RES     
    4031 H           53.4600    46.8350   -13.0538 H             1 RES     
    4032 H           54.5089    45.4162   -12.8164 H             1 RES     
    4033 C           55.5682    47.2991   -12.9196 C             1 RES     
    4034 H           56.4475    46.9193   -12.3993 H             1 RES     
    4035 H           55.3986    48.3380   -12.6367 H             1 RES     
    4036 C           55.7946    47.2119   -14.4403 C             1 RES     
    4037 H           54.9153    47.5918   -14.9606 H             1 RES     
    4038 H           55.9642    46.1730   -14.7232 H             1 RES     
    4039 C           57.0235    48.0559   -14.8264 C             1 RES     
    4040 H           57.9028    47.6761   -14.3061 H             1 RES     
    4041 H           56.8538    49.0948   -14.5435 H             1 RES     
    4042 C           57.2498    47.9688   -16.3472 C             1 RES     
    4043 H           56.3705    48.3486   -16.8675 H             1 RES     
    4044 H           57.4195    46.9299   -16.6300 H             1 RES     
    4045 C           58.4787    48.8127   -16.7332 C             1 RES     
    4046 H           59.3580    48.4329   -16.2129 H             1 RES     
    4047 H           58.3091    49.8516   -16.4503 H             1 RES     
    4048 C           58.7051    48.7256   -18.2540 C             1 RES     
    4049 H           57.8258    49.1054   -18.7743 H             1 RES     
    4050 H           58.8747    47.6867   -18.5368 H             1 RES     
    4051 C           59.9340    49.5695   -18.6400 C             1 RES     
    4052 H           60.8133    49.1897   -18.1197 H             1 RES     
    4053 H           59.7644    50.6084   -18.3572 H             1 RES     
    4054 C           60.1603    49.4824   -20.1608 C             1 RES     
    4055 H           59.2811    49.8622   -20.6811 H             1 RES     
    4056 H           60.3300    48.4435   -20.4437 H             1 RES     
    4057 C           61.3893    50.3264   -20.5468 C             1 RES     
    4058 H           62.2685    49.9465   -20.0265 H             1 RES     
    4059 H           61.2196    51.3652   -20.2640 H             1 RES     
    4060 C           61.6053    50.2431   -21.9985 C             1 RES     
    4061 H           62.2358    49.3904   -21.8558 H             1 RES     
    4062 H           62.0268    50.8768   -22.7508 H             1 RES     
    4063 H           60.6326    49.9202   -22.3080 H             1 RES     
    4064 C           47.9584    45.4691    -5.3250 C             1 RES     
    4065 O           47.3926    44.3799    -5.4051 O             1 RES     
    4066 O           48.3987    46.1053    -4.0400 O             1 RES     
    4067 C           48.2790    46.3083    -6.4375 C             1 RES     
    4068 H           49.3563    46.4694    -6.4751 H             1 RES     
    4069 H           47.7719    47.2657    -6.3171 H             1 RES     
    4070 C           47.8138    45.6425    -7.7459 C             1 RES     
    4071 H           46.7364    45.4814    -7.7082 H             1 RES     
    4072 H           48.3208    44.6851    -7.8662 H             1 RES     
    4073 C           48.1545    46.5567    -8.9374 C             1 RES     
    4074 H           49.2318    46.7178    -8.9750 H             1 RES     
    4075 H           47.6474    47.5141    -8.8170 H             1 RES     
    4076 C           47.6893    45.8908   -10.2457 C             1 RES     
    4077 H           46.6119    45.7298   -10.2081 H             1 RES     
    4078 H           48.1963    44.9335   -10.3661 H             1 RES     
    4079 C           48.0300    46.8051   -11.4372 C             1 RES     
    4080 H           49.1073    46.9662   -11.4749 H             1 RES     
    4081 H           47.5229    47.7625   -11.3169 H             1 RES     
    4082 C           47.5648    46.1392   -12.7456 C             1 RES     
    4083 H           46.4874    45.9781   -12.7079 H             1 RES     
    4084 H           48.0718    45.1818   -12.8660 H             1 RES     
    4085 C           47.9055    47.0535   -13.9371 C             1 RES     
    4086 H           48.9828    47.2145   -13.9747 H             1 RES     
    4087 H           47.3984    48.0108   -13.8167 H             1 RES     
    4088 C           47.4403    46.3876   -15.2454 C             1 RES     
    4089 H           46.3629    46.2265   -15.2078 H             1 RES     
    4090 H           47.9473    45.4302   -15.3658 H             1 RES     
    4091 C           47.7810    47.3018   -16.4369 C             1 RES     
    4092 H           48.8583    47.4629   -16.4746 H             1 RES     
    4093 H           47.2739    48.2592   -16.3166 H             1 RES     
    4094 C           47.3158    46.6360   -17.7453 C             1 RES     
    4095 H           46.2384    46.4749   -17.7077 H             1 RES     
    4096 H           47.8228    45.6786   -17.8657 H             1 RES     
    4097 C           47.6565    47.5502   -18.9368 C             1 RES     
    4098 H           48.7338    47.7113   -18.9745 H             1 RES     
    4099 H           47.1494    48.5076   -18.8164 H             1 RES     
    4100 C           47.1913    46.8843   -20.2452 C             1 RES     
    4101 H           46.1139    46.7233   -20.2075 H             1 RES     
    4102 H           47.6983    45.9270   -20.3655 H             1 RES     
    4103 C           47.5320    47.7986   -21.4367 C             1 RES     
    4104 H           48.6093    47.9597   -21.4743 H             1 RES     
    4105 H           47.0249    48.7559   -21.3163 H             1 RES     
    4106 C           47.0668    47.1327   -22.7450 C             1 RES     
    4107 H           45.9894    46.9716   -22.7074 H             1 RES     
    4108 H           47.5738    46.1753   -22.8654 H             1 RES     
    4109 C           47.4075    48.0470   -23.9365 C             1 RES     
    4110 H           48.4848    48.2080   -23.9742 H             1 RES     
    4111 H           46.9004    49.0043   -23.8162 H             1 RES     
    4112 C           46.9423    47.3811   -25.2449 C             1 RES     
    4113 H           45.8649    47.2200   -25.2073 H             1 RES     
    4114 H           47.4493    46.4237   -25.3653 H             1 RES     
    4115 C           47.2675    48.2538   -26.3822 C             1 RES     
    4116 H           46.3152    48.7324   -26.2873 H             1 RES     
    4117 H           47.4949    48.1138   -27.4185 H             1 RES     
    4118 H           48.0212    48.8658   -25.9311 H             1 RES     
    4119 N           21.9089     0.0000     5.0000 N             1 RES     
    4120 C           21.6577     1.4448     5.2163 C             1 RES     
    4121 H           22.4284     2.0737     4.7226 H             1 RES     
    4122 H           21.6877     1.6977     6.3003 H             1 RES     
    4123 H           20.6593     1.7404     4.8234 H             1 RES     
    4124 C           23.2565    -0.3497     5.5091 C             1 RES     
    4125 H           23.4808    -1.4266     5.3400 H             1 RES     
    4126 H           23.3347    -0.1511     6.6018 H             1 RES     
    4127 H           24.0495     0.2542     5.0194 H             1 RES     
    4128 C           20.9042    -0.7690     5.7732 C             1 RES     
    4129 H           20.9653    -0.5371     6.8606 H             1 RES     
    4130 H           21.0581    -1.8653     5.6540 H             1 RES     
    4131 H           19.8698    -0.5315     5.4364 H             1 RES     
    4132 C           21.7613    -0.3666     3.5586 C             1 RES     
    4133 H           20.7293    -0.1360     3.2097 H             1 RES     
    4134 H           21.9108    -1.4620     3.4260 H             1 RES     
    4135 C           22.7283     0.3378     2.5960 C             1 RES     
    4136 H           23.7887     0.0811     2.7918 H             1 RES     
    4137 H           22.5814     1.4363     2.5707 H             1 RES     
    4138 P           21.6264     0.9172     0.4318 P             1 RES     
    4139 O           21.5210     0.5175    -1.1139 O             1 RES     
    4140 O           22.6561    -0.0617     1.1676 O             1 RES     
    4141 O           22.1828     2.4164     0.4849 O             1 RES     
    4142 O           20.1668     0.7277     1.0592 O             1 RES     
    4143 C           20.5595     1.4445    -1.7631 C             1 RES     
    4144 H           20.9186     2.4687    -1.6628 H             1 RES     
    4145 H           19.5853     1.3518    -1.2830 H             1 RES     
    4146 C           21.3431    -0.1087    -3.5797 C             1 RES     
    4147 H           22.3777     0.1513    -3.3557 H             1 RES     
    4148 H           21.0444    -0.9656    -2.9759 H             1 RES     
    4149 C           20.4315     1.0896    -3.2561 C             1 RES     
    4150 H           19.3969     0.8296    -3.4801 H             1 RES     
    4151 C           22.3363     0.4743    -5.4006 C             1 RES     
    4152 O           22.9782     1.1689    -4.6142 O             1 RES     
    4153 O           21.2209    -0.4474    -5.0049 O             1 RES     
    4154 C           22.5533     0.4239    -6.8131 C             1 RES     
    4155 H           21.6447     0.7267    -7.3334 H             1 RES     
    4156 H           22.8116    -0.5966    -7.0959 H             1 RES     
    4157 C           23.7052     1.3703    -7.1991 C             1 RES     
    4158 H           24.6138     1.0675    -6.6788 H             1 RES     
    4159 H           23.4469     2.3908    -6.9162 H             1 RES     
    4160 C           23.9382     1.3029    -8.7199 C             1 RES     
    4161 H           23.0295     1.6058    -9.2402 H             1 RES     
    4162 H           24.1965     0.2825    -9.0027 H             1 RES     
    4163 C           25.0900     2.2494    -9.1059 C             1 RES     
    4164 H           25.9987     1.9466    -8.5856 H             1 RES     
    4165 H           24.8317     3.2699    -8.8231 H             1 RES     
    4166 C           25.3230     2.1820   -10.6267 C             1 RES     
    4167 H           24.4143     2.4849   -11.1470 H             1 RES     
    4168 H           25.5813     1.1615   -10.9096 H             1 RES     
    4169 C           26.4748     3.1285   -11.0127 C             1 RES     
    4170 H           27.3835     2.8256   -10.4924 H             1 RES     
    4171 H           26.2165     4.1490   -10.7299 H             1 RES     
    4172 C           26.7078     3.0611   -12.5335 C             1 RES     
    4173 H           25.7992     3.3639   -13.0538 H             1 RES     
    4174 H           26.9661     2.0406   -12.8164 H             1 RES     
    4175 C           27.8597     4.0076   -12.9196 C             1 RES     
    4176 H           28.7683     3.7047   -12.3993 H             1 RES     
    4177 H           27.6014     5.0280   -12.6367 H             1 RES     
    4178 C           28.0927     3.9402   -14.4403 C             1 RES     
    4179 H           27.1840     4.2430   -14.9606 H             1 RES     
    4180 H           28.3510     2.9197   -14.7232 H             1 RES     
    4181 C           29.2445     4.8866   -14.8264 C             1 RES     
    4182 H           30.1532     4.5838   -14.3061 H             1 RES     
    4183 H           28.9862     5.9071   -14.5435 H             1 RES     
    4184 C           29.4775     4.8192   -16.3472 C             1 RES     
    4185 H           28.5689     5.1221   -16.8675 H             1 RES     
    4186 H           29.7358     3.7988   -16.6300 H             1 RES     
    4187 C           30.6294     5.7657   -16.7332 C             1 RES     
    4188 H           31.5380     5.4629   -16.2129 H             1 RES     
    4189 H           30.3711     6.7862   -16.4503 H             1 RES     
    4190 C           30.8624     5.6983   -18.2540 C             1 RES     
    4191 H           29.9537     6.0012   -18.7743 H             1 RES     
    4192 H           31.1207     4.6778   -18.5368 H             1 RES     
    4193 C           32.0142     6.6448   -18.6400 C             1 RES     
    4194 H           32.9229     6.3419   -18.1197 H             1 RES     
    4195 H           31.7559     7.6653   -18.3572 H             1 RES     
    4196 C           32.2472     6.5774   -20.1608 C             1 RES     
    4197 H           31.3385     6.8802   -20.6811 H             1 RES     
    4198 H           32.5055     5.5569   -20.4437 H             1 RES     
    4199 C           33.3990     7.5239   -20.5468 C             1 RES     
    4200 H           34.3077     7.2210   -20.0265 H             1 RES     
    4201 H           33.1407     8.5443   -20.2640 H             1 RES     
    4202 C           33.6214     7.4595   -21.9985 C             1 RES     
    4203 H           34.3228     6.6642   -21.8558 H             1 RES     
    4204 H           33.9869     8.1271   -22.7508 H             1 RES     
    4205 H           32.6801     7.0542   -22.3080 H             1 RES     
    4206 C           20.4353     1.5303    -5.3250 C             1 RES     
    4207 O           19.9652     0.3965    -5.4051 O             1 RES     
    4208 O           20.8193     2.2020    -4.0400 O             1 RES     
    4209 C           20.6826     2.3940    -6.4375 C             1 RES     
    4210 H           21.7421     2.6471    -6.4751 H             1 RES     
    4211 H           20.0951     3.3042    -6.3171 H             1 RES     
    4212 C           20.2764     1.6906    -7.7459 C             1 RES     
    4213 H           19.2168     1.4375    -7.7082 H             1 RES     
    4214 H           20.8638     0.7804    -7.8662 H             1 RES     
    4215 C           20.5372     2.6308    -8.9374 C             1 RES     
    4216 H           21.5967     2.8838    -8.9750 H             1 RES     
    4217 H           19.9497     3.5410    -8.8170 H             1 RES     
    4218 C           20.1310     1.9274   -10.2457 C             1 RES     
    4219 H           19.0714     1.6743   -10.2081 H             1 RES     
    4220 H           20.7184     1.0171   -10.3661 H             1 RES     
    4221 C           20.3918     2.8675   -11.4372 C             1 RES     
    4222 H           21.4513     3.1206   -11.4749 H             1 RES     
    4223 H           19.8044     3.7778   -11.3169 H             1 RES     
    4224 C           19.9856     2.1641   -12.7456 C             1 RES     
    4225 H           18.9260     1.9110   -12.7079 H             1 RES     
    4226 H           20.5730     1.2539   -12.8660 H             1 RES     
    4227 C           20.2464     3.1043   -13.9371 C             1 RES     
    4228 H           21.3059     3.3573   -13.9747 H             1 RES     
    4229 H           19.6590     4.0145   -13.8167 H             1 RES     
    4230 C           19.8402     2.4009   -15.2454 C             1 RES     
    4231 H           18.7807     2.1478   -15.2078 H             1 RES     
    4232 H           20.4276     1.4906   -15.3658 H             1 RES     
    4233 C           20.1010     3.3410   -16.4369 C             1 RES     
    4234 H           21.1606     3.5941   -16.4746 H             1 RES     
    4235 H           19.5136     4.2513   -16.3166 H             1 RES     
    4236 C           19.6948     2.6376   -17.7453 C             1 RES     
    4237 H           18.6353     2.3846   -17.7077 H             1 RES     
    4238 H           20.2822     1.7274   -17.8657 H             1 RES     
    4239 C           19.9556     3.5778   -18.9368 C             1 RES     
    4240 H           21.0152     3.8309   -18.9745 H             1 RES     
    4241 H           19.3682     4.4880   -18.8164 H             1 RES     
    4242 C           19.5494     2.8744   -20.2452 C             1 RES     
    4243 H           18.4899     2.6213   -20.2075 H             1 RES     
    4244 H           20.1369     1.9641   -20.3655 H             1 RES     
    4245 C           19.8102     3.8145   -21.4367 C             1 RES     
    4246 H           20.8698     4.0676   -21.4743 H             1 RES     
    4247 H           19.2228     4.7248   -21.3163 H             1 RES     
    4248 C           19.4040     3.1111   -22.7450 C             1 RES     
    4249 H           18.3445     2.8581   -22.7074 H             1 RES     
    4250 H           19.9915     2.2009   -22.8654 H             1 RES     
    4251 C           19.6649     4.0513   -23.9365 C             1 RES     
    4252 H           20.7244     4.3044   -23.9742 H             1 RES     
    4253 H           19.0774     4.9615   -23.8162 H             1 RES     
    4254 C           19.2587     3.3479   -25.2449 C             1 RES     
    4255 H           18.1991     3.0948   -25.2073 H             1 RES     
    4256 H           19.8461     2.4377   -25.3653 H             1 RES     
    4257 C           19.5076     4.2453   -26.3822 C             1 RES     
    4258 H           18.5177     4.6403   -26.2873 H             1 RES     
    4259 H           19.7462     4.1254   -27.4185 H             1 RES     
    4260 H           20.2060     4.9199   -25.9311 H             1 RES     
    4261 N           27.3861     0.0000     5.0000 N             1 RES     
    4262 C           27.5466     1.4577     5.2163 C             1 RES     
    4263 H           28.4617     1.8475     4.7226 H             1 RES     
    4264 H           27.6456     1.6923     6.3003 H             1 RES     
    4265 H           26.6697     2.0192     4.8234 H             1 RES     
    4266 C           28.5834    -0.7106     5.5091 C             1 RES     
    4267 H           28.4995    -1.8074     5.3400 H             1 RES     
    4268 H           28.7137    -0.5416     6.6018 H             1 RES     
    4269 H           29.5130    -0.3509     5.0194 H             1 RES     
    4270 C           26.2072    -0.4593     5.7732 C             1 RES     
    4271 H           26.3303    -0.2536     6.8606 H             1 RES     
    4272 H           26.0503    -1.5552     5.6540 H             1 RES     
    4273 H           25.2797     0.0564     5.4364 H             1 RES     
    4274 C           27.1425    -0.3111     3.5586 C             1 RES     
    4275 H           26.2153     0.1973     3.2097 H             1 RES     
    4276 H           26.9814    -1.4049     3.4260 H             1 RES     
    4277 C           28.2671     0.0967     2.5960 C             1 RES     
    4278 H           29.2144    -0.4447     2.7918 H             1 RES     
    4279 H           28.4314     1.1927     2.5707 H             1 RES     
    4280 P           27.3698     0.9596     0.4318 P             1 RES     
    4281 O           27.1574     0.6049    -1.1139 O             1 RES     
    4282 O           28.0867    -0.2670     1.1676 O             1 RES     
    4283 O           28.3210     2.2450     0.4849 O             1 RES     
    4284 O           25.9150     1.1833     1.0592 O             1 RES     
    4285 C           26.4916     1.7627    -1.7631 C             1 RES     
    4286 H           27.1212     2.6467    -1.6628 H             1 RES     
    4287 H           25.5300     1.9446    -1.2830 H             1 RES     
    4288 C           26.8125     0.0529    -3.5797 C             1 RES     
    4289 H           27.8785     0.0150    -3.3557 H             1 RES     
    4290 H           26.2873    -0.6872    -2.9759 H             1 RES     
    4291 C           26.2699     1.4574    -3.2561 C             1 RES     
    4292 H           25.2039     1.4953    -3.4801 H             1 RES     
    4293 C           27.9285     0.3368    -5.4006 C             1 RES     
    4294 O           28.7382     0.8255    -4.6142 O             1 RES     
    4295 O           26.6009    -0.2385    -5.0049 O             1 RES     
    4296 C           28.1230     0.2280    -6.8131 C             1 RES     
    4297 H           27.3344     0.7715    -7.3334 H             1 RES     
    4298 H           28.0874    -0.8241    -7.0959 H             1 RES     
    4299 C           29.4926     0.8169    -7.1991 C             1 RES     
    4300 H           30.2812     0.2734    -6.6788 H             1 RES     
    4301 H           29.5282     1.8690    -6.9162 H             1 RES     
    4302 C           29.6976     0.6874    -8.7199 C             1 RES     
    4303 H           28.9090     1.2309    -9.2402 H             1 RES     
    4304 H           29.6620    -0.3647    -9.0027 H             1 RES     
    4305 C           31.0672     1.2763    -9.1059 C             1 RES     
    4306 H           31.8558     0.7328    -8.5856 H             1 RES     
    4307 H           31.1028     2.3284    -8.8231 H             1 RES     
    4308 C           31.2723     1.1468   -10.6267 C             1 RES     
    4309 H           30.4836     1.6903   -11.1470 H             1 RES     
    4310 H           31.2367     0.0947   -10.9096 H             1 RES     
    4311 C           32.6419     1.7357   -11.0127 C             1 RES     
    4312 H           33.4305     1.1922   -10.4924 H             1 RES     
    4313 H           32.6774     2.7878   -10.7299 H             1 RES     
    4314 C           32.8469     1.6062   -12.5335 C             1 RES     
    4315 H           32.0583     2.1497   -13.0538 H             1 RES     
    4316 H           32.8113     0.5541   -12.8164 H             1 RES     
    4317 C           34.2165     2.1951   -12.9196 C             1 RES     
    4318 H           35.0051     1.6516   -12.3993 H             1 RES     
    4319 H           34.2521     3.2472   -12.6367 H             1 RES     
    4320 C           34.4216     2.0656   -14.4403 C             1 RES     
    4321 H           33.6329     2.6091   -14.9606 H             1 RES     
    4322 H           34.3860     1.0135   -14.7232 H             1 RES     
    4323 C           35.7911     2.6545   -14.8264 C             1 RES     
    4324 H           36.5798     2.1110   -14.3061 H             1 RES     
    4325 H           35.8267     3.7066   -14.5435 H             1 RES     
    4326 C           35.9962     2.5250   -16.3472 C             1 RES     
    4327 H           35.2076     3.0685   -16.8675 H             1 RES     
    4328 H           35.9606     1.4729   -16.6300 H             1 RES     
    4329 C           37.3658     3.1139   -16.7332 C             1 RES     
    4330 H           38.1544     2.5704   -16.2129 H             1 RES     
    4331 H           37.4014     4.1660   -16.4503 H             1 RES     
    4332 C           37.5708     2.9844   -18.2540 C             1 RES     
    4333 H           36.7822     3.5279   -18.7743 H             1 RES     
    4334 H           37.5353     1.9323   -18.5368 H             1 RES     
    4335 C           38.9404     3.5733   -18.6400 C             1 RES     
    4336 H           39.7291     3.0298   -18.1197 H             1 RES     
    4337 H           38.9760     4.6254   -18.3572 H             1 RES     
    4338 C           39.1455     3.4438   -20.1608 C             1 RES     
    4339 H           38.3569     3.9873   -20.6811 H             1 RES     
    4340 H           39.1099     2.3917   -20.4437 H             1 RES     
    4341 C           40.5151     4.0327   -20.5468 C             1 RES     
    4342 H           41.3037     3.4892   -20.0265 H             1 RES     
    4343 H           40.5507     5.0848   -20.2640 H             1 RES     
    4344 C           40.7108     3.9091   -21.9985 C             1 RES     
    4345 H           41.1634     2.9501   -21.8558 H             1 RES     
    4346 H           41.2475     4.4487   -22.7508 H             1 RES     
    4347 H           39.6939     3.7814   -22.3080 H             1 RES     
    4348 C           26.3961     1.8797    -5.3250 C             1 RES     
    4349 O           25.6293     0.9213    -5.4051 O             1 RES     
    4350 O           26.9517     2.4181    -4.0400 O             1 RES     
    4351 C           26.8737     2.6406    -6.4375 C             1 RES     
    4352 H           27.9618     2.5891    -6.4751 H             1 RES     
    4353 H           26.5625     3.6782    -6.3171 H             1 RES     
    4354 C           26.2880     2.0778    -7.7459 C             1 RES     
    4355 H           25.1998     2.1293    -7.7082 H             1 RES     
    4356 H           26.5992     1.0402    -7.8662 H             1 RES     
    4357 C           26.7999     2.9084    -8.9374 C             1 RES     
    4358 H           27.8880     2.8569    -8.9750 H             1 RES     
    4359 H           26.4887     3.9461    -8.8170 H             1 RES     
    4360 C           26.2141     2.3457   -10.2457 C             1 RES     
    4361 H           25.1260     2.3972   -10.2081 H             1 RES     
    4362 H           26.5253     1.3080   -10.3661 H             1 RES     
    4363 C           26.7261     3.1763   -11.4372 C             1 RES     
    4364 H           27.8142     3.1248   -11.4749 H             1 RES     
    4365 H           26.4149     4.2139   -11.3169 H             1 RES     
    4366 C           26.1403     2.6135   -12.7456 C             1 RES     
    4367 H           25.0522     2.6650   -12.7079 H             1 RES     
    4368 H           26.4515     1.5758   -12.8660 H             1 RES     
    4369 C           26.6522     3.4441   -13.9371 C             1 RES     
    4370 H           27.7404     3.3926   -13.9747 H             1 RES     
    4371 H           26.3410     4.4818   -13.8167 H             1 RES     
    4372 C           26.0665     2.8814   -15.2454 C             1 RES     
    4373 H           24.9783     2.9328   -15.2078 H             1 RES     
    4374 H           26.3777     1.8437   -15.3658 H             1 RES     
    4375 C           26.5784     3.7119   -16.4369 C             1 RES     
    4376 H           27.6665     3.6605   -16.4746 H             1 RES     
    4377 H           26.2672     4.7496   -16.3166 H             1 RES     
    4378 C           25.9926     3.1492   -17.7453 C             1 RES     
    4379 H           24.9045     3.2007   -17.7077 H             1 RES     
    4380 H           26.3039     2.1115   -17.8657 H             1 RES     
    4381 C           26.5046     3.9798   -18.9368 C             1 RES     
    4382 H           27.5927     3.9283   -18.9745 H             1 RES     
    4383 H           26.1934     5.0175   -18.8164 H             1 RES     
    4384 C           25.9188     3.4170   -20.2452 C             1 RES     
    4385 H           24.8307     3.4685   -20.2075 H             1 RES     
    4386 H           26.2300     2.3794   -20.3655 H             1 RES     
    4387 C           26.4307     4.2476   -21.4367 C             1 RES     
    4388 H           27.5189     4.1961   -21.4743 H             1 RES     
    4389 H           26.1195     5.2853   -21.3163 H             1 RES     
    4390 C           25.8450     3.6849   -22.7450 C             1 RES     
    4391 H           24.7569     3.7364   -22.7074 H             1 RES     
    4392 H           26.1562     2.6472   -22.8654 H             1 RES     
    4393 C           26.3569     4.5155   -23.9365 C             1 RES     
    4394 H           27.4450     4.4640   -23.9742 H             1 RES     
    4395 H           26.0457     5.5531   -23.8162 H             1 RES     
    4396 C           25.7712     3.9527   -25.2449 C             1 RES     
    4397 H           24.6830     4.0042   -25.2073 H             1 RES     
    4398 H           26.0824     2.9151   -25.3653 H             1 RES     
    4399 C           26.2598     4.7456   -26.3822 C             1 RES     
    4400 H           25.4188     5.4002   -26.2873 H             1 RES     
    4401 H           26.4557     4.5640   -27.4185 H             1 RES     
    4402 H           27.1182     5.1994   -25.9311 H             1 RES     
    4403 N            5.4772    32.8634     5.0000 N             1 RES     
    4404 C            5.7692    34.3005     5.2163 C             1 RES     
    4405 H            6.7159    34.6057     4.7226 H             1 RES     
    4406 H            5.8891    34.5251     6.3003 H             1 RES     
    4407 H            4.9469    34.9392     4.8234 H             1 RES     
    4408 C            6.6051    32.0471     5.5091 C             1 RES     
    4409 H            6.4220    30.9625     5.3400 H             1 RES     
    4410 H            6.7502    32.2036     6.6018 H             1 RES     
    4411 H            7.5635    32.3210     5.0194 H             1 RES     
    4412 C            4.2615    32.5128     5.7732 C             1 RES     
    4413 H            4.4028    32.7065     6.8606 H             1 RES     
    4414 H            4.0058    31.4357     5.6540 H             1 RES     
    4415 H            3.3846    33.1105     5.4364 H             1 RES     
    4416 C            5.2064    32.5757     3.5586 C             1 RES     
    4417 H            4.3291    33.1661     3.2097 H             1 RES     
    4418 H            4.9468    31.5010     3.4260 H             1 RES     
    4419 C            6.3634    32.8797     2.5960 C             1 RES     
    4420 H            7.2576    32.2547     2.7918 H             1 RES     
    4421 H            6.6264    33.9563     2.5707 H             1 RES     
    4422 P            5.5480    33.8205     0.4318 P             1 RES     
    4423 O            5.3043    33.4865    -1.1139 O             1 RES     
    4424 O            6.1507    32.5339     1.1676 O             1 RES     
    4425 O            6.6119    35.0143     0.4849 O             1 RES     
    4426 O            4.1195    34.1752     1.0592 O             1 RES     
    4427 C            4.7462    34.6999    -1.7631 C             1 RES     
    4428 H            5.4535    35.5232    -1.6628 H             1 RES     
    4429 H            3.8051    34.9682    -1.2830 H             1 RES     
    4430 C            4.9107    32.9681    -3.5797 C             1 RES     
    4431 H            5.9690    32.8336    -3.3557 H             1 RES     
    4432 H            4.3206    32.2787    -2.9759 H             1 RES     
    4433 C            4.4978    34.4160    -3.2561 C             1 RES     
    4434 H            3.4396    34.5504    -3.4801 H             1 RES     
    4435 C            6.0479    33.1495    -5.4006 C             1 RES     
    4436 O            6.8986    33.5629    -4.6142 O             1 RES     
    4437 O            4.6736    32.6970    -5.0049 O             1 RES     
    4438 C            6.2317    33.0236    -6.8131 C             1 RES     
    4439 H            5.4956    33.6364    -7.3334 H             1 RES     
    4440 H            6.1009    31.9791    -7.0959 H             1 RES     
    4441 C            7.6491    33.4859    -7.1991 C             1 RES     
    4442 H            8.3852    32.8730    -6.6788 H             1 RES     
    4443 H            7.7799    34.5304    -6.9162 H             1 RES     
    4444 C            7.8415    33.3383    -8.7199 C             1 RES     
    4445 H            7.1055    33.9511    -9.2402 H             1 RES     
    4446 H            7.7107    32.2938    -9.0027 H             1 RES     
    4447 C            9.2589    33.8006    -9.1059 C             1 RES     
    4448 H            9.9950    33.1877    -8.5856 H             1 RES     
    4449 H            9.3898    34.8451    -8.8231 H             1 RES     
    4450 C            9.4514    33.6530   -10.6267 C             1 RES     
    4451 H            8.7153    34.2658   -11.1470 H             1 RES     
    4452 H            9.3205    32.6085   -10.9096 H             1 RES     
    4453 C           10.8687    34.1153   -11.0127 C             1 RES     
    4454 H           11.6048    33.5024   -10.4924 H             1 RES     
    4455 H           10.9996    35.1597   -10.7299 H             1 RES     
    4456 C           11.0612    33.9677   -12.5335 C             1 RES     
    4457 H           10.3251    34.5805   -13.0538 H             1 RES     
    4458 H           10.9303    32.9232   -12.8164 H             1 RES     
    4459 C           12.4785    34.4300   -12.9196 C             1 RES     
    4460 H           13.2146    33.8171   -12.3993 H             1 RES     
    4461 H           12.6094    35.4744   -12.6367 H             1 RES     
    4462 C           12.6710    34.2824   -14.4403 C             1 RES     
    4463 H           11.9349    34.8952   -14.9606 H             1 RES     
    4464 H           12.5401    33.2379   -14.7232 H             1 RES     
    4465 C           14.0883    34.7446   -14.8264 C             1 RES     
    4466 H           14.8244    34.1318   -14.3061 H             1 RES     
    4467 H           14.2192    35.7891   -14.5435 H             1 RES     
    4468 C           14.2808    34.5971   -16.3472 C             1 RES     
    4469 H           13.5447    35.2099   -16.8675 H             1 RES     
    4470 H           14.1500    33.5526   -16.6300 H             1 RES     
    4471 C           15.6982    35.0593   -16.7332 C             1 RES     
    4472 H           16.4343    34.4465   -16.2129 H             1 RES     
    4473 H           15.8290    36.1038   -16.4503 H             1 RES     
    4474 C           15.8906    34.9118   -18.2540 C             1 RES     
    4475 H           15.1545    35.5246   -18.7743 H             1 RES     
    4476 H           15.7598    33.8673   -18.5368 H             1 RES     
    4477 C           17.3080    35.3740   -18.6400 C             1 RES     
    4478 H           18.0441    34.7612   -18.1197 H             1 RES     
    4479 H           17.4388    36.4185   -18.3572 H             1 RES     
    4480 C           17.5005    35.2265   -20.1608 C             1 RES     
    4481 H           16.7644    35.8393   -20.6811 H             1 RES     
    4482 H           17.3696    34.1820   -20.4437 H             1 RES     
    4483 C           18.9178    35.6887   -20.5468 C             1 RES     
    4484 H           19.6539    35.0759   -20.0265 H             1 RES     
    4485 H           19.0487    36.7332   -20.2640 H             1 RES     
    4486 C           19.1015    35.5479   -21.9985 C             1 RES     
    4487 H           19.4653    34.5518   -21.8558 H             1 RES     
    4488 H           19.6849    36.0366   -22.7508 H             1 RES     
    4489 H           18.0772    35.5129   -22.3080 H             1 RES     
    4490 C            4.6618    34.8251    -5.3250 C             1 RES     
    4491 O            3.8112    33.9402    -5.4051 O             1 RES     
    4492 O            5.2639    35.3109    -4.0400 O             1 RES     
    4493 C            5.2064    35.5395    -6.4375 C             1 RES     
    4494 H            6.2854    35.3896    -6.4751 H             1 RES     
    4495 H            4.9906    36.6011    -6.3171 H             1 RES     
    4496 C            4.5720    35.0322    -7.7459 C             1 RES     
    4497 H            3.4931    35.1822    -7.7082 H             1 RES     
    4498 H            4.7879    33.9706    -7.8662 H             1 RES     
    4499 C            5.1572    35.8130    -8.9374 C             1 RES     
    4500 H            6.2362    35.6630    -8.9750 H             1 RES     
    4501 H            4.9414    36.8746    -8.8170 H             1 RES     
    4502 C            4.5228    35.3057   -10.2457 C             1 RES     
    4503 H            3.4438    35.4556   -10.2081 H             1 RES     
    4504 H            4.7386    34.2440   -10.3661 H             1 RES     
    4505 C            5.1079    36.0864   -11.4372 C             1 RES     
    4506 H            6.1869    35.9364   -11.4749 H             1 RES     
    4507 H            4.8921    37.1480   -11.3169 H             1 RES     
    4508 C            4.4736    35.5791   -12.7456 C             1 RES     
    4509 H            3.3946    35.7291   -12.7079 H             1 RES     
    4510 H            4.6894    34.5175   -12.8660 H             1 RES     
    4511 C            5.0587    36.3598   -13.9371 C             1 RES     
    4512 H            6.1377    36.2099   -13.9747 H             1 RES     
    4513 H            4.8429    37.4214   -13.8167 H             1 RES     
    4514 C            4.4243    35.8525   -15.2454 C             1 RES     
    4515 H            3.3454    36.0025   -15.2078 H             1 RES     
    4516 H            4.6402    34.7909   -15.3658 H             1 RES     
    4517 C            5.0095    36.6333   -16.4369 C             1 RES     
    4518 H            6.0885    36.4833   -16.4746 H             1 RES     
    4519 H            4.7937    37.6949   -16.3166 H             1 RES     
    4520 C            4.3751    36.1260   -17.7453 C             1 RES     
    4521 H            3.2961    36.2759   -17.7077 H             1 RES     
    4522 H            4.5909    35.0643   -17.8657 H             1 RES     
    4523 C            4.9602    36.9067   -18.9368 C             1 RES     
    4524 H            6.0392    36.7567   -18.9745 H             1 RES     
    4525 H            4.7444    37.9683   -18.8164 H             1 RES     
    4526 C            4.3259    36.3994   -20.2452 C             1 RES     
    4527 H            3.2469    36.5494   -20.2075 H             1 RES     
    4528 H            4.5417    35.3378   -20.3655 H             1 RES     
    4529 C            4.9110    37.1801   -21.4367 C             1 RES     
    4530 H            5.9900    37.0302   -21.4743 H             1 RES     
    4531 H            4.6952    38.2417   -21.3163 H             1 RES     
    4532 C            4.2766    36.6728   -22.7450 C             1 RES     
    4533 H            3.1977    36.8228   -22.7074 H             1 RES     
    4534 H            4.4925    35.6112   -22.8654 H             1 RES     
    4535 C            4.8618    37.4536   -23.9365 C             1 RES     
    4536 H            5.9408    37.3036   -23.9742 H             1 RES     
    4537 H            4.6460    38.5152   -23.8162 H             1 RES     
    4538 C            4.2274    36.9463   -25.2449 C             1 RES     
    4539 H            3.1484    37.0962   -25.2073 H             1 RES     
    4540 H            4.4432    35.8846   -25.3653 H             1 RES     
    4541 C            4.7859    37.6915   -26.3822 C             1 RES     
    4542 H            4.0077    38.4197   -26.2873 H             1 RES     
    4543 H            4.9646    37.4930   -27.4185 H             1 RES     
    4544 H            5.6819    38.0656   -25.9311 H             1 RES     
    4545 N           38.3406    49.2950     5.0000 N             1 RES     
    4546 C           38.1473    50.7487     5.2163 C             1 RES     
    4547 H           38.9425    51.3463     4.7226 H             1 RES     
    4548 H           38.1873    51.0002     6.3003 H             1 RES     
    4549 H           37.1615    51.0839     4.8234 H             1 RES     
    4550 C           39.6731    48.8918     5.5091 C             1 RES     
    4551 H           39.8542    47.8068     5.3400 H             1 RES     
    4552 H           39.7592    49.0871     6.6018 H             1 RES     
    4553 H           40.4896    49.4635     5.0194 H             1 RES     
    4554 C           37.3059    48.5668     5.7732 C             1 RES     
    4555 H           37.3762    48.7960     6.8606 H             1 RES     
    4556 H           37.4160    47.4652     5.6540 H             1 RES     
    4557 H           36.2819    48.8454     5.4364 H             1 RES     
    4558 C           38.1785    48.9347     3.5586 C             1 RES     
    4559 H           37.1565    49.2063     3.2097 H             1 RES     
    4560 H           38.2840    47.8341     3.4260 H             1 RES     
    4561 C           39.1728    49.5998     2.5960 C             1 RES     
    4562 H           40.2221    49.3010     2.7918 H             1 RES     
    4563 H           39.0699    50.7033     2.5707 H             1 RES     
    4564 P           38.0950    50.2228     0.4318 P             1 RES     
    4565 O           37.9737    49.8276    -1.1139 O             1 RES     
    4566 O           39.0847    49.2035     1.1676 O             1 RES     
    4567 O           38.7108    51.6986     0.4849 O             1 RES     
    4568 O           36.6289    50.0917     1.0592 O             1 RES     
    4569 C           37.0500    50.7923    -1.7631 C             1 RES     
    4570 H           37.4497    51.8014    -1.6628 H             1 RES     
    4571 H           36.0729    50.7386    -1.2830 H             1 RES     
    4572 C           37.7709    49.2091    -3.5797 C             1 RES     
    4573 H           38.8151    49.4275    -3.3557 H             1 RES     
    4574 H           37.4382    48.3647    -2.9759 H             1 RES     
    4575 C           36.9079    50.4428    -3.2561 C             1 RES     
    4576 H           35.8638    50.2243    -3.4801 H             1 RES     
    4577 C           38.7865    49.7518    -5.4006 C             1 RES     
    4578 O           39.4557    50.4203    -4.6142 O             1 RES     
    4579 O           37.6353    48.8755    -5.0049 O             1 RES     
    4580 C           39.0014    49.6928    -6.8131 C             1 RES     
    4581 H           38.1056    50.0317    -7.3334 H             1 RES     
    4582 H           39.2188    48.6628    -7.0959 H             1 RES     
    4583 C           40.1902    50.5925    -7.1991 C             1 RES     
    4584 H           41.0860    50.2536    -6.6788 H             1 RES     
    4585 H           39.9728    51.6225    -6.9162 H             1 RES     
    4586 C           40.4203    50.5159    -8.7199 C             1 RES     
    4587 H           39.5244    50.8548    -9.2402 H             1 RES     
    4588 H           40.6376    49.4859    -9.0027 H             1 RES     
    4589 C           41.6090    51.4156    -9.1059 C             1 RES     
    4590 H           42.5048    51.0767    -8.5856 H             1 RES     
    4591 H           41.3917    52.4456    -8.8231 H             1 RES     
    4592 C           41.8391    51.3389   -10.6267 C             1 RES     
    4593 H           40.9433    51.6778   -11.1470 H             1 RES     
    4594 H           42.0565    50.3089   -10.9096 H             1 RES     
    4595 C           43.0279    52.2386   -11.0127 C             1 RES     
    4596 H           43.9237    51.8997   -10.4924 H             1 RES     
    4597 H           42.8105    53.2686   -10.7299 H             1 RES     
    4598 C           43.2580    52.1620   -12.5335 C             1 RES     
    4599 H           42.3621    52.5009   -13.0538 H             1 RES     
    4600 H           43.4753    51.1320   -12.8164 H             1 RES     
    4601 C           44.4467    53.0617   -12.9196 C             1 RES     
    4602 H           45.3426    52.7228   -12.3993 H             1 RES     
    4603 H           44.2294    54.0916   -12.6367 H             1 RES     
    4604 C           44.6768    52.9850   -14.4403 C             1 RES     
    4605 H           43.7810    53.3239   -14.9606 H             1 RES     
    4606 H           44.8942    51.9550   -14.7232 H             1 RES     
    4607 C           45.8656    53.8847   -14.8264 C             1 RES     
    4608 H           46.7614    53.5458   -14.3061 H             1 RES     
    4609 H           45.6482    54.9147   -14.5435 H             1 RES     
    4610 C           46.0957    53.8081   -16.3472 C             1 RES     
    4611 H           45.1998    54.1470   -16.8675 H             1 RES     
    4612 H           46.3130    52.7781   -16.6300 H             1 RES     
    4613 C           47.2844    54.7078   -16.7332 C             1 RES     
    4614 H           48.1803    54.3688   -16.2129 H             1 RES     
    4615 H           47.0671    55.7377   -16.4503 H             1 RES     
    4616 C           47.5145    54.6311   -18.2540 C             1 RES     
    4617 H           46.6187    54.9700   -18.7743 H             1 RES     
    4618 H           47.7319    53.6011   -18.5368 H             1 RES     
    4619 C           48.7033    55.5308   -18.6400 C             1 RES     
    4620 H           49.5991    55.1919   -18.1197 H             1 RES     
    4621 H           48.4859    56.5608   -18.3572 H             1 RES     
    4622 C           48.9334    55.4542   -20.1608 C             1 RES     
    4623 H           48.0375    55.7931   -20.6811 H             1 RES     
    4624 H           49.1507    54.4242   -20.4437 H             1 RES     
    4625 C           50.1221    56.3539   -20.5468 C             1 RES     
    4626 H           51.0180    56.0149   -20.0265 H             1 RES     
    4627 H           49.9048    57.3838   -20.2640 H             1 RES     
    4628 C           50.3418    56.2807   -21.9985 C             1 RES     
    4629 H           51.0108    55.4579   -21.8558 H             1 RES     
    4630 H           50.7336    56.9331   -22.7508 H             1 RES     
    4631 H           49.3850    55.9132   -22.3080 H             1 RES     
    4632 C           36.9293    50.8830    -5.3250 C             1 RES     
    4633 O           36.4143    49.7689    -5.4051 O             1 RES     
    4634 O           37.3398    51.5388    -4.0400 O             1 RES     
    4635 C           37.2109    51.7361    -6.4375 C             1 RES     
    4636 H           38.2797    51.9467    -6.4751 H             1 RES     
    4637 H           36.6602    52.6691    -6.3171 H             1 RES     
    4638 C           36.7769    51.0495    -7.7459 C             1 RES     
    4639 H           35.7081    50.8390    -7.7082 H             1 RES     
    4640 H           37.3275    50.1165    -7.8662 H             1 RES     
    4641 C           37.0750    51.9785    -8.9374 C             1 RES     
    4642 H           38.1439    52.1890    -8.9750 H             1 RES     
    4643 H           36.5244    52.9115    -8.8170 H             1 RES     
    4644 C           36.6411    51.2919   -10.2457 C             1 RES     
    4645 H           35.5722    51.0813   -10.2081 H             1 RES     
    4646 H           37.1917    50.3589   -10.3661 H             1 RES     
    4647 C           36.9392    52.2209   -11.4372 C             1 RES     
    4648 H           38.0080    52.4314   -11.4749 H             1 RES     
    4649 H           36.3886    53.1538   -11.3169 H             1 RES     
    4650 C           36.5053    51.5343   -12.7456 C             1 RES     
    4651 H           35.4364    51.3237   -12.7079 H             1 RES     
    4652 H           37.0559    50.6013   -12.8660 H             1 RES     
    4653 C           36.8034    52.4632   -13.9371 C             1 RES     
    4654 H           37.8722    52.6738   -13.9747 H             1 RES     
    4655 H           36.2528    53.3962   -13.8167 H             1 RES     
    4656 C           36.3694    51.7766   -15.2454 C             1 RES     
    4657 H           35.3006    51.5661   -15.2078 H             1 RES     
    4658 H           36.9200    50.8436   -15.3658 H             1 RES     
    4659 C           36.6676    52.7056   -16.4369 C             1 RES     
    4660 H           37.7364    52.9162   -16.4746 H             1 RES     
    4661 H           36.1170    53.6386   -16.3166 H             1 RES     
    4662 C           36.2336    52.0190   -17.7453 C             1 RES     
    4663 H           35.1648    51.8085   -17.7077 H             1 RES     
    4664 H           36.7842    51.0860   -17.8657 H             1 RES     
    4665 C           36.5318    52.9480   -18.9368 C             1 RES     
    4666 H           37.6006    53.1585   -18.9745 H             1 RES     
    4667 H           35.9812    53.8810   -18.8164 H             1 RES     
    4668 C           36.0978    52.2614   -20.2452 C             1 RES     
    4669 H           35.0290    52.0508   -20.2075 H             1 RES     
    4670 H           36.6484    51.3284   -20.3655 H             1 RES     
    4671 C           36.3960    53.1904   -21.4367 C             1 RES     
    4672 H           37.4648    53.4009   -21.4743 H             1 RES     
    4673 H           35.8454    54.1233   -21.3163 H             1 RES     
    4674 C           35.9620    52.5038   -22.7450 C             1 RES     
    4675 H           34.8932    52.2932   -22.7074 H             1 RES     
    4676 H           36.5126    51.5708   -22.8654 H             1 RES     
    4677 C           36.2602    53.4327   -23.9365 C             1 RES     
    4678 H           37.3290    53.6433   -23.9742 H             1 RES     
    4679 H           35.7096    54.3657   -23.8162 H             1 RES     
    4680 C           35.8262    52.7461   -25.2449 C             1 RES     
    4681 H           34.7574    52.5356   -25.2073 H             1 RES     
    4682 H           36.3768    51.8131   -25.3653 H             1 RES     
    4683 C           36.1108    53.6329   -26.3822 C             1 RES     
    4684 H           35.1375    54.0671   -26.2873 H             1 RES     
    4685 H           36.3445    53.5036   -27.4185 H             1 RES     
    4686 H           36.8355    54.2790   -25.9311 H             1 RES     
    4687 N            5.4772    16.4317     5.0000 N             1 RES     
    4688 C            5.9295    17.8267     5.2163 C             1 RES     
    4689 H            6.9046    18.0231     4.7226 H             1 RES     
    4690 H            6.0740    18.0364     6.3003 H             1 RES     
    4691 H            5.1845    18.5541     4.8234 H             1 RES     
    4692 C            6.5058    15.4934     5.5091 C             1 RES     
    4693 H            6.2015    14.4363     5.3400 H             1 RES     
    4694 H            6.6677    15.6325     6.6018 H             1 RES     
    4695 H            7.4889    15.6573     5.0194 H             1 RES     
    4696 C            4.2297    16.2206     5.7732 C             1 RES     
    4697 H            4.3920    16.3971     6.8606 H             1 RES     
    4698 H            3.8541    15.1792     5.6540 H             1 RES     
    4699 H            3.4258    16.9135     5.4364 H             1 RES     
    4700 C            5.1756    16.1764     3.5586 C             1 RES     
    4701 H            4.3706    16.8620     3.2097 H             1 RES     
    4702 H            4.7964    15.1378     3.4260 H             1 RES     
    4703 C            6.3595    16.3480     2.5960 C             1 RES     
    4704 H            7.1775    15.6260     2.7918 H             1 RES     
    4705 H            6.7424    17.3880     2.5707 H             1 RES     
    4706 P            5.6556    17.3747     0.4318 P             1 RES     
    4707 O            5.3757    17.0704    -1.1139 O             1 RES     
    4708 O            6.1092    16.0283     1.1676 O             1 RES     
    4709 O            6.8474    18.4409     0.4849 O             1 RES     
    4710 O            4.2762    17.8884     1.0592 O             1 RES     
    4711 C            4.9581    18.3390    -1.7631 C             1 RES     
    4712 H            5.7538    19.0772    -1.6628 H             1 RES     
    4713 H            4.0533    18.7118    -1.2830 H             1 RES     
    4714 C            4.9262    16.5997    -3.5797 C             1 RES     
    4715 H            5.9625    16.3467    -3.3557 H             1 RES     
    4716 H            4.2620    15.9813    -2.9759 H             1 RES     
    4717 C            4.6793    18.0849    -3.2561 C             1 RES     
    4718 H            3.6430    18.3379    -3.4801 H             1 RES     
    4719 C            6.0766    16.6516    -5.4006 C             1 RES     
    4720 O            6.9685    16.9663    -4.6142 O             1 RES     
    4721 O            4.6600    16.3571    -5.0049 O             1 RES     
    4722 C            6.2450    16.5057    -6.8131 C             1 RES     
    4723 H            5.5828    17.1977    -7.3334 H             1 RES     
    4724 H            5.9971    15.4827    -7.0959 H             1 RES     
    4725 C            7.7055    16.8051    -7.1991 C             1 RES     
    4726 H            8.3677    16.1131    -6.6788 H             1 RES     
    4727 H            7.9534    17.8282    -6.9162 H             1 RES     
    4728 C            7.8800    16.6367    -8.7199 C             1 RES     
    4729 H            7.2178    17.3287    -9.2402 H             1 RES     
    4730 H            7.6321    15.6137    -9.0027 H             1 RES     
    4731 C            9.3405    16.9361    -9.1059 C             1 RES     
    4732 H           10.0027    16.2441    -8.5856 H             1 RES     
    4733 H            9.5884    17.9592    -8.8231 H             1 RES     
    4734 C            9.5151    16.7678   -10.6267 C             1 RES     
    4735 H            8.8529    17.4597   -11.1470 H             1 RES     
    4736 H            9.2672    15.7447   -10.9096 H             1 RES     
    4737 C           10.9755    17.0671   -11.0127 C             1 RES     
    4738 H           11.6378    16.3752   -10.4924 H             1 RES     
    4739 H           11.2234    18.0902   -10.7299 H             1 RES     
    4740 C           11.1501    16.8988   -12.5335 C             1 RES     
    4741 H           10.4879    17.5908   -13.0538 H             1 RES     
    4742 H           10.9022    15.8757   -12.8164 H             1 RES     
    4743 C           12.6106    17.1982   -12.9196 C             1 RES     
    4744 H           13.2728    16.5062   -12.3993 H             1 RES     
    4745 H           12.8585    18.2212   -12.6367 H             1 RES     
    4746 C           12.7852    17.0298   -14.4403 C             1 RES     
    4747 H           12.1230    17.7218   -14.9606 H             1 RES     
    4748 H           12.5373    16.0067   -14.7232 H             1 RES     
    4749 C           14.2456    17.3292   -14.8264 C             1 RES     
    4750 H           14.9079    16.6372   -14.3061 H             1 RES     
    4751 H           14.4935    18.3522   -14.5435 H             1 RES     
    4752 C           14.4202    17.1608   -16.3472 C             1 RES     
    4753 H           13.7580    17.8528   -16.8675 H             1 RES     
    4754 H           14.1723    16.1378   -16.6300 H             1 RES     
    4755 C           15.8807    17.4602   -16.7332 C             1 RES     
    4756 H           16.5429    16.7682   -16.2129 H             1 RES     
    4757 H           16.1286    18.4832   -16.4503 H             1 RES     
    4758 C           16.0553    17.2918   -18.2540 C             1 RES     
    4759 H           15.3931    17.9838   -18.7743 H             1 RES     
    4760 H           15.8074    16.2688   -18.5368 H             1 RES     
    4761 C           17.5157    17.5912   -18.6400 C             1 RES     
    4762 H           18.1780    16.8992   -18.1197 H             1 RES     
    4763 H           17.7636    18.6142   -18.3572 H             1 RES     
    4764 C           17.6903    17.4228   -20.1608 C             1 RES     
    4765 H           17.0281    18.1148   -20.6811 H             1 RES     
    4766 H           17.4424    16.3998   -20.4437 H             1 RES     
    4767 C           19.1508    17.7222   -20.5468 C             1 RES     
    4768 H           19.8130    17.0302   -20.0265 H             1 RES     
    4769 H           19.3987    18.7453   -20.2640 H             1 RES     
    4770 C           19.3174    17.5615   -21.9985 C             1 RES     
    4771 H           19.5665    16.5307   -21.8558 H             1 RES     
    4772 H           19.9523    17.9813   -22.7508 H             1 RES     
    4773 H           18.2957    17.6424   -22.3080 H             1 RES     
    4774 C            4.8884    18.4729    -5.3250 C             1 RES     
    4775 O            3.9434    17.6896    -5.4051 O             1 RES     
    4776 O            5.5415    18.8877    -4.0400 O             1 RES     
    4777 C            5.5102    19.1213    -6.4375 C             1 RES     
    4778 H            6.5653    18.8505    -6.4751 H             1 RES     
    4779 H            5.4155    20.2005    -6.3171 H             1 RES     
    4780 C            4.8226    18.6888    -7.7459 C             1 RES     
    4781 H            3.7674    18.9596    -7.7082 H             1 RES     
    4782 H            4.9172    17.6096    -7.8662 H             1 RES     
    4783 C            5.4921    19.3985    -8.9374 C             1 RES     
    4784 H            6.5473    19.1278    -8.9750 H             1 RES     
    4785 H            5.3975    20.4777    -8.8170 H             1 RES     
    4786 C            4.8045    18.9661   -10.2457 C             1 RES     
    4787 H            3.7494    19.2369   -10.2081 H             1 RES     
    4788 H            4.8991    17.8869   -10.3661 H             1 RES     
    4789 C            5.4740    19.6758   -11.4372 C             1 RES     
    4790 H            6.5292    19.4050   -11.4749 H             1 RES     
    4791 H            5.3794    20.7550   -11.3169 H             1 RES     
    4792 C            4.7865    19.2433   -12.7456 C             1 RES     
    4793 H            3.7313    19.5141   -12.7079 H             1 RES     
    4794 H            4.8811    18.1641   -12.8660 H             1 RES     
    4795 C            5.4560    19.9530   -13.9371 C             1 RES     
    4796 H            6.5111    19.6823   -13.9747 H             1 RES     
    4797 H            5.3613    21.0322   -13.8167 H             1 RES     
    4798 C            4.7684    19.5206   -15.2454 C             1 RES     
    4799 H            3.7132    19.7913   -15.2078 H             1 RES     
    4800 H            4.8630    18.4414   -15.3658 H             1 RES     
    4801 C            5.4379    20.2303   -16.4369 C             1 RES     
    4802 H            6.4931    19.9595   -16.4746 H             1 RES     
    4803 H            5.3433    21.3095   -16.3166 H             1 RES     
    4804 C            4.7503    19.7978   -17.7453 C             1 RES     
    4805 H            3.6952    20.0686   -17.7077 H             1 RES     
    4806 H            4.8450    18.7186   -17.8657 H             1 RES     
    4807 C            5.4198    20.5075   -18.9368 C             1 RES     
    4808 H            6.4750    20.2368   -18.9745 H             1 RES     
    4809 H            5.3252    21.5867   -18.8164 H             1 RES     
    4810 C            4.7323    20.0751   -20.2452 C             1 RES     
    4811 H            3.6771    20.3458   -20.2075 H             1 RES     
    4812 H            4.8269    18.9959   -20.3655 H             1 RES     
    4813 C            5.4018    20.7848   -21.4367 C             1 RES     
    4814 H            6.4569    20.5140   -21.4743 H             1 RES     
    4815 H            5.3072    21.8640   -21.3163 H             1 RES     
    4816 C            4.7142    20.3523   -22.7450 C             1 RES     
    4817 H            3.6591    20.6231   -22.7074 H             1 RES     
    4818 H            4.8088    19.2731   -22.8654 H             1 RES     
    4819 C            5.3837    21.0620   -23.9365 C             1 RES     
    4820 H            6.4389    20.7912   -23.9742 H             1 RES     
    4821 H            5.2891    22.1412   -23.8162 H             1 RES     
    4822 C            4.6962    20.6295   -25.2449 C             1 RES     
    4823 H            3.6410    20.9003   -25.2073 H             1 RES     
    4824 H            4.7908    19.5504   -25.3653 H             1 RES     
    4825 C            5.3352    21.3070   -26.3822 C             1 RES     
    4826 H            4.6442    22.1184   -26.2873 H             1 RES     
    4827 H            5.4903    21.0896   -27.4185 H             1 RES     
    4828 H            6.2677    21.5776   -25.9311 H             1 RES     
    4829 N           16.4317     5.4772     5.0000 N             1 RES     
    4830 C           16.6578     6.9262     5.2163 C             1 RES     
    4831 H           17.5896     7.2743     4.7226 H             1 RES     
    4832 H           16.7673     7.1561     6.3003 H             1 RES     
    4833 H           15.8071     7.5267     4.8234 H             1 RES     
    4834 C           17.5956     4.7133     5.5091 C             1 RES     
    4835 H           17.4623     3.6215     5.3400 H             1 RES     
    4836 H           17.7335     4.8763     6.6018 H             1 RES     
    4837 H           18.5405     5.0306     5.0194 H             1 RES     
    4838 C           15.2332     5.0716     5.7732 C             1 RES     
    4839 H           15.3655     5.2715     6.8606 H             1 RES     
    4840 H           15.0270     3.9839     5.6540 H             1 RES     
    4841 H           14.3299     5.6286     5.4364 H             1 RES     
    4842 C           16.1742     5.1775     3.5586 C             1 RES     
    4843 H           15.2709     5.7272     3.2097 H             1 RES     
    4844 H           15.9640     4.0920     3.4260 H             1 RES     
    4845 C           17.3161     5.5340     2.5960 C             1 RES     
    4846 H           18.2380     4.9504     2.7918 H             1 RES     
    4847 H           17.5298     6.6215     2.5707 H             1 RES     
    4848 P           16.4587     6.4366     0.4318 P             1 RES     
    4849 O           16.2305     6.0919    -1.1139 O             1 RES     
    4850 O           17.1195     5.1788     1.1676 O             1 RES     
    4851 O           17.4670     7.6778     0.4849 O             1 RES     
    4852 O           15.0155     6.7257     1.0592 O             1 RES     
    4853 C           15.6176     7.2785    -1.7631 C             1 RES     
    4854 H           16.2866     8.1332    -1.6628 H             1 RES     
    4855 H           14.6652     7.5036    -1.2830 H             1 RES     
    4856 C           15.8610     5.5560    -3.5797 C             1 RES     
    4857 H           16.9242     5.4700    -3.3557 H             1 RES     
    4858 H           15.3029     4.8404    -2.9759 H             1 RES     
    4859 C           15.3824     6.9835    -3.2561 C             1 RES     
    4860 H           14.3191     7.0695    -3.4801 H             1 RES     
    4861 C           16.9887     5.7891    -5.4006 C             1 RES     
    4862 O           17.8196     6.2409    -4.6142 O             1 RES     
    4863 O           15.6365     5.2744    -5.0049 O             1 RES     
    4864 C           17.1781     5.6717    -6.8131 C             1 RES     
    4865 H           16.4148     6.2503    -7.3334 H             1 RES     
    4866 H           17.0950     4.6223    -7.0959 H             1 RES     
    4867 C           18.5728     6.1982    -7.1991 C             1 RES     
    4868 H           19.3361     5.6196    -6.6788 H             1 RES     
    4869 H           18.6559     7.2476    -6.9162 H             1 RES     
    4870 C           18.7719     6.0596    -8.7199 C             1 RES     
    4871 H           18.0086     6.6382    -9.2402 H             1 RES     
    4872 H           18.6888     5.0102    -9.0027 H             1 RES     
    4873 C           20.1666     6.5861    -9.1059 C             1 RES     
    4874 H           20.9299     6.0075    -8.5856 H             1 RES     
    4875 H           20.2497     7.6354    -8.8231 H             1 RES     
    4876 C           20.3656     6.4474   -10.6267 C             1 RES     
    4877 H           19.6023     7.0260   -11.1470 H             1 RES     
    4878 H           20.2826     5.3980   -10.9096 H             1 RES     
    4879 C           21.7604     6.9739   -11.0127 C             1 RES     
    4880 H           22.5237     6.3953   -10.4924 H             1 RES     
    4881 H           21.8435     8.0233   -10.7299 H             1 RES     
    4882 C           21.9594     6.8352   -12.5335 C             1 RES     
    4883 H           21.1961     7.4138   -13.0538 H             1 RES     
    4884 H           21.8764     5.7859   -12.8164 H             1 RES     
    4885 C           23.3542     7.3617   -12.9196 C             1 RES     
    4886 H           24.1175     6.7831   -12.3993 H             1 RES     
    4887 H           23.4372     8.4111   -12.6367 H             1 RES     
    4888 C           23.5532     7.2231   -14.4403 C             1 RES     
    4889 H           22.7899     7.8017   -14.9606 H             1 RES     
    4890 H           23.4701     6.1737   -14.7232 H             1 RES     
    4891 C           24.9480     7.7496   -14.8264 C             1 RES     
    4892 H           25.7113     7.1710   -14.3061 H             1 RES     
    4893 H           25.0310     8.7990   -14.5435 H             1 RES     
    4894 C           25.1470     7.6109   -16.3472 C             1 RES     
    4895 H           24.3837     8.1895   -16.8675 H             1 RES     
    4896 H           25.0639     6.5616   -16.6300 H             1 RES     
    4897 C           26.5417     8.1374   -16.7332 C             1 RES     
    4898 H           27.3050     7.5588   -16.2129 H             1 RES     
    4899 H           26.6248     9.1868   -16.4503 H             1 RES     
    4900 C           26.7407     7.9988   -18.2540 C             1 RES     
    4901 H           25.9775     8.5774   -18.7743 H             1 RES     
    4902 H           26.6577     6.9494   -18.5368 H             1 RES     
    4903 C           28.1355     8.5253   -18.6400 C             1 RES     
    4904 H           28.8988     7.9467   -18.1197 H             1 RES     
    4905 H           28.2186     9.5746   -18.3572 H             1 RES     
    4906 C           28.3345     8.3866   -20.1608 C             1 RES     
    4907 H           27.5712     8.9652   -20.6811 H             1 RES     
    4908 H           28.2515     7.3372   -20.4437 H             1 RES     
    4909 C           29.7293     8.9131   -20.5468 C             1 RES     
    4910 H           30.4926     8.3345   -20.0265 H             1 RES     
    4911 H           29.8123     9.9625   -20.2640 H             1 RES     
    4912 C           29.9193     8.7808   -21.9985 C             1 RES     
    4913 H           30.3281     7.8023   -21.8558 H             1 RES     
    4914 H           30.4797     9.2956   -22.7508 H             1 RES     
    4915 H           28.8976     8.6991   -22.3080 H             1 RES     
    4916 C           15.5275     7.3997    -5.3250 C             1 RES     
    4917 O           14.7182     6.4769    -5.4051 O             1 RES     
    4918 O           16.1069     7.9125    -4.0400 O             1 RES     
    4919 C           16.0390     8.1382    -6.4375 C             1 RES     
    4920 H           17.1237     8.0377    -6.4751 H             1 RES     
    4921 H           15.7750     9.1889    -6.3171 H             1 RES     
    4922 C           15.4284     7.6025    -7.7459 C             1 RES     
    4923 H           14.3437     7.7031    -7.7082 H             1 RES     
    4924 H           15.6925     6.5519    -7.8662 H             1 RES     
    4925 C           15.9773     8.4091    -8.9374 C             1 RES     
    4926 H           17.0620     8.3086    -8.9750 H             1 RES     
    4927 H           15.7133     9.4598    -8.8170 H             1 RES     
    4928 C           15.3668     7.8734   -10.2457 C             1 RES     
    4929 H           14.2821     7.9740   -10.2081 H             1 RES     
    4930 H           15.6308     6.8228   -10.3661 H             1 RES     
    4931 C           15.9157     8.6800   -11.4372 C             1 RES     
    4932 H           17.0004     8.5795   -11.4749 H             1 RES     
    4933 H           15.6516     9.7307   -11.3169 H             1 RES     
    4934 C           15.3051     8.1443   -12.7456 C             1 RES     
    4935 H           14.2204     8.2449   -12.7079 H             1 RES     
    4936 H           15.5692     7.0937   -12.8660 H             1 RES     
    4937 C           15.8540     8.9509   -13.9371 C             1 RES     
    4938 H           16.9387     8.8504   -13.9747 H             1 RES     
    4939 H           15.5900    10.0016   -13.8167 H             1 RES     
    4940 C           15.2435     8.4152   -15.2454 C             1 RES     
    4941 H           14.1588     8.5158   -15.2078 H             1 RES     
    4942 H           15.5075     7.3646   -15.3658 H             1 RES     
    4943 C           15.7924     9.2218   -16.4369 C             1 RES     
    4944 H           16.8771     9.1213   -16.4746 H             1 RES     
    4945 H           15.5283    10.2725   -16.3166 H             1 RES     
    4946 C           15.1818     8.6861   -17.7453 C             1 RES     
    4947 H           14.0971     8.7867   -17.7077 H             1 RES     
    4948 H           15.4458     7.6355   -17.8657 H             1 RES     
    4949 C           15.7307     9.4927   -18.9368 C             1 RES     
    4950 H           16.8154     9.3922   -18.9745 H             1 RES     
    4951 H           15.4666    10.5434   -18.8164 H             1 RES     
    4952 C           15.1201     8.9570   -20.2452 C             1 RES     
    4953 H           14.0354     9.0576   -20.2075 H             1 RES     
    4954 H           15.3842     7.9064   -20.3655 H             1 RES     
    4955 C           15.6690     9.7637   -21.4367 C             1 RES     
    4956 H           16.7537     9.6631   -21.4743 H             1 RES     
    4957 H           15.4050    10.8143   -21.3163 H             1 RES     
    4958 C           15.0585     9.2279   -22.7450 C             1 RES     
    4959 H           13.9738     9.3285   -22.7074 H             1 RES     
    4960 H           15.3225     8.1773   -22.8654 H             1 RES     
    4961 C           15.6074    10.0346   -23.9365 C             1 RES     
    4962 H           16.6921     9.9340   -23.9742 H             1 RES     
    4963 H           15.3433    11.0852   -23.8162 H             1 RES     
    4964 C           14.9968     9.4988   -25.2449 C             1 RES     
    4965 H           13.9121     9.5994   -25.2073 H             1 RES     
    4966 H           15.2609     8.4482   -25.3653 H             1 RES     
    4967 C           15.5208    10.2688   -26.3822 C             1 RES     
    4968 H           14.7101    10.9607   -26.2873 H             1 RES     
    4969 H           15.7082    10.0786   -27.4185 H             1 RES     
    4970 H           16.3987    10.6834   -25.9311 H             1 RES     
    4971 N            0.0000    38.3406     5.0000 N             1 RES     
    4972 C            0.1772    39.7963     5.2163 C             1 RES     
    4973 H            1.0967    40.1756     4.7226 H             1 RES     
    4974 H            0.2789    40.0298     6.3003 H             1 RES     
    4975 H           -0.6932    40.3678     4.8234 H             1 RES     
    4976 C            1.1890    37.6163     5.5091 C             1 RES     
    4977 H            1.0925    36.5206     5.3400 H             1 RES     
    4978 H            1.3213    37.7838     6.6018 H             1 RES     
    4979 H            2.1227    37.9652     5.0194 H             1 RES     
    4980 C           -1.1841    37.8948     5.7732 C             1 RES     
    4981 H           -1.0586    38.0991     6.8606 H             1 RES     
    4982 H           -1.3536    36.8008     5.6540 H             1 RES     
    4983 H           -2.1057    38.4212     5.4364 H             1 RES     
    4984 C           -0.2472    38.0323     3.5586 C             1 RES     
    4985 H           -1.1685    38.5513     3.2097 H             1 RES     
    4986 H           -0.4208    36.9404     3.4260 H             1 RES     
    4987 C            0.8820    38.4271     2.5960 C             1 RES     
    4988 H            1.8230    37.8749     2.7918 H             1 RES     
    4989 H            1.0589    39.5212     2.5707 H             1 RES     
    4990 P           -0.0053    39.3003     0.4318 P             1 RES     
    4991 O           -0.2218    38.9481    -1.1139 O             1 RES     
    4992 O            0.6975    38.0655     1.1676 O             1 RES     
    4993 O            0.9606    40.5747     0.4849 O             1 RES     
    4994 O           -1.4574    39.5407     1.0592 O             1 RES     
    4995 C           -0.8743    40.1134    -1.7631 C             1 RES     
    4996 H           -0.2345    40.9902    -1.6628 H             1 RES     
    4997 H           -1.8337    40.3063    -1.2830 H             1 RES     
    4998 C           -0.5730    38.4001    -3.5797 C             1 RES     
    4999 H            0.4925    38.3499    -3.3557 H             1 RES     
    5000 H           -1.1067    37.6661    -2.9759 H             1 RES     
    5001 C           -1.0994    39.8107    -3.2561 C             1 RES     
    5002 H           -2.1649    39.8608    -3.4801 H             1 RES     
    5003 C            0.5462    38.6711    -5.4006 C             1 RES     
    5004 O            1.3615    39.1505    -4.6142 O             1 RES     
    5005 O           -0.7879    38.1111    -5.0049 O             1 RES     
    5006 C            0.7394    38.5601    -6.8131 C             1 RES     
    5007 H           -0.0429    39.1127    -7.3334 H             1 RES     
    5008 H            0.6918    37.5085    -7.0959 H             1 RES     
    5009 C            2.1157    39.1332    -7.1991 C             1 RES     
    5010 H            2.8980    38.5807    -6.6788 H             1 RES     
    5011 H            2.1634    40.1848    -6.9162 H             1 RES     
    5012 C            2.3192    39.0014    -8.7199 C             1 RES     
    5013 H            1.5369    39.5539    -9.2402 H             1 RES     
    5014 H            2.2716    37.9498    -9.0027 H             1 RES     
    5015 C            3.6955    39.5745    -9.1059 C             1 RES     
    5016 H            4.4778    39.0219    -8.5856 H             1 RES     
    5017 H            3.7432    40.6261    -8.8231 H             1 RES     
    5018 C            3.8991    39.4426   -10.6267 C             1 RES     
    5019 H            3.1167    39.9952   -11.1470 H             1 RES     
    5020 H            3.8514    38.3911   -10.9096 H             1 RES     
    5021 C            5.2753    40.0158   -11.0127 C             1 RES     
    5022 H            6.0577    39.4632   -10.4924 H             1 RES     
    5023 H            5.3230    41.0674   -10.7299 H             1 RES     
    5024 C            5.4789    39.8839   -12.5335 C             1 RES     
    5025 H            4.6965    40.4365   -13.0538 H             1 RES     
    5026 H            5.4312    38.8323   -12.8164 H             1 RES     
    5027 C            6.8551    40.4571   -12.9196 C             1 RES     
    5028 H            7.6375    39.9045   -12.3993 H             1 RES     
    5029 H            6.9028    41.5087   -12.6367 H             1 RES     
    5030 C            7.0587    40.3252   -14.4403 C             1 RES     
    5031 H            6.2764    40.8778   -14.9606 H             1 RES     
    5032 H            7.0110    39.2736   -14.7232 H             1 RES     
    5033 C            8.4350    40.8984   -14.8264 C             1 RES     
    5034 H            9.2173    40.3458   -14.3061 H             1 RES     
    5035 H            8.4826    41.9499   -14.5435 H             1 RES     
    5036 C            8.6385    40.7665   -16.3472 C             1 RES     
    5037 H            7.8562    41.3191   -16.8675 H             1 RES     
    5038 H            8.5908    39.7149   -16.6300 H             1 RES     
    5039 C           10.0148    41.3396   -16.7332 C             1 RES     
    5040 H           10.7971    40.7871   -16.2129 H             1 RES     
    5041 H           10.0625    42.3912   -16.4503 H             1 RES     
    5042 C           10.2183    41.2078   -18.2540 C             1 RES     
    5043 H            9.4360    41.7603   -18.7743 H             1 RES     
    5044 H           10.1707    40.1562   -18.5368 H             1 RES     
    5045 C           11.5946    41.7809   -18.6400 C             1 RES     
    5046 H           12.3769    41.2283   -18.1197 H             1 RES     
    5047 H           11.6423    42.8325   -18.3572 H             1 RES     
    5048 C           11.7982    41.6490   -20.1608 C             1 RES     
    5049 H           11.0158    42.2016   -20.6811 H             1 RES     
    5050 H           11.7505    40.5975   -20.4437 H             1 RES     
    5051 C           13.1744    42.2222   -20.5468 C             1 RES     
    5052 H           13.9567    41.6696   -20.0265 H             1 RES     
    5053 H           13.2221    43.2738   -20.2640 H             1 RES     
    5054 C           13.3687    42.0963   -21.9985 C             1 RES     
    5055 H           13.8103    41.1322   -21.8558 H             1 RES     
    5056 H           13.9116    42.6298   -22.7508 H             1 RES     
    5057 H           12.3504    41.9803   -22.3080 H             1 RES     
    5058 C           -0.9684    40.2315    -5.3250 C             1 RES     
    5059 O           -1.7461    39.2820    -5.4051 O             1 RES     
    5060 O           -0.4066    40.7636    -4.0400 O             1 RES     
    5061 C           -0.4820    40.9869    -6.4375 C             1 RES     
    5062 H            0.6054    40.9229    -6.4751 H             1 RES     
    5063 H           -0.7813    42.0280    -6.3171 H             1 RES     
    5064 C           -1.0742    40.4309    -7.7459 C             1 RES     
    5065 H           -2.1617    40.4949    -7.7082 H             1 RES     
    5066 H           -0.7750    39.3897    -7.8662 H             1 RES     
    5067 C           -0.5528    41.2555    -8.9374 C             1 RES     
    5068 H            0.5347    41.1916    -8.9750 H             1 RES     
    5069 H           -0.8521    42.2967    -8.8170 H             1 RES     
    5070 C           -1.1450    40.6996   -10.2457 C             1 RES     
    5071 H           -2.2324    40.7636   -10.2081 H             1 RES     
    5072 H           -0.8457    39.6584   -10.3661 H             1 RES     
    5073 C           -0.6235    41.5242   -11.4372 C             1 RES     
    5074 H            0.4639    41.4602   -11.4749 H             1 RES     
    5075 H           -0.9228    42.5654   -11.3169 H             1 RES     
    5076 C           -1.2157    40.9682   -12.7456 C             1 RES     
    5077 H           -2.3032    41.0322   -12.7079 H             1 RES     
    5078 H           -0.9164    39.9271   -12.8660 H             1 RES     
    5079 C           -0.6943    41.7929   -13.9371 C             1 RES     
    5080 H            0.3932    41.7289   -13.9747 H             1 RES     
    5081 H           -0.9935    42.8341   -13.8167 H             1 RES     
    5082 C           -1.2865    41.2369   -15.2454 C             1 RES     
    5083 H           -2.3739    41.3009   -15.2078 H             1 RES     
    5084 H           -0.9872    40.1957   -15.3658 H             1 RES     
    5085 C           -0.7650    42.0616   -16.4369 C             1 RES     
    5086 H            0.3224    41.9976   -16.4746 H             1 RES     
    5087 H           -1.0643    43.1027   -16.3166 H             1 RES     
    5088 C           -1.3572    41.5056   -17.7453 C             1 RES     
    5089 H           -2.4447    41.5696   -17.7077 H             1 RES     
    5090 H           -1.0579    40.4644   -17.8657 H             1 RES     
    5091 C           -0.8358    42.3302   -18.9368 C             1 RES     
    5092 H            0.2517    42.2662   -18.9745 H             1 RES     
    5093 H           -1.1350    43.3714   -18.8164 H             1 RES     
    5094 C           -1.4280    41.7743   -20.2452 C             1 RES     
    5095 H           -2.5154    41.8382   -20.2075 H             1 RES     
    5096 H           -1.1287    40.7331   -20.3655 H             1 RES     
    5097 C           -0.9065    42.5989   -21.4367 C             1 RES     
    5098 H            0.1809    42.5349   -21.4743 H             1 RES     
    5099 H           -1.2058    43.6401   -21.3163 H             1 RES     
    5100 C           -1.4987    42.0429   -22.7450 C             1 RES     
    5101 H           -2.5862    42.1069   -22.7074 H             1 RES     
    5102 H           -1.1994    41.0017   -22.8654 H             1 RES     
    5103 C           -0.9773    42.8676   -23.9365 C             1 RES     
    5104 H            0.1102    42.8036   -23.9742 H             1 RES     
    5105 H           -1.2765    43.9087   -23.8162 H             1 RES     
    5106 C           -1.5694    42.3116   -25.2449 C             1 RES     
    5107 H           -2.6569    42.3756   -25.2073 H             1 RES     
    5108 H           -1.2702    41.2704   -25.3653 H             1 RES     
    5109 C           -1.0717    43.0988   -26.3822 C             1 RES     
    5110 H           -1.9052    43.7630   -26.2873 H             1 RES     
    5111 H           -0.8779    42.9150   -27.4185 H             1 RES     
    5112 H           -0.2082    43.5427   -25.9311 H             1 RES     
    5113 N           21.9089    43.8178     5.0000 N             1 RES     
    5114 C           22.2498    45.2441     5.2163 C             1 RES     
    5115 H           23.2064    45.5168     4.7226 H             1 RES     
    5116 H           22.3774    45.4645     6.3003 H             1 RES     
    5117 H           21.4498    45.9105     4.8234 H             1 RES     
    5118 C           23.0082    42.9635     5.5091 C             1 RES     
    5119 H           22.7882    41.8858     5.3400 H             1 RES     
    5120 H           23.1586    43.1149     6.6018 H             1 RES     
    5121 H           23.9754    43.2044     5.0194 H             1 RES     
    5122 C           20.6819    43.5090     5.7732 C             1 RES     
    5123 H           20.8297    43.6978     6.8606 H             1 RES     
    5124 H           20.3896    42.4412     5.6540 H             1 RES     
    5125 H           19.8259    44.1364     5.4364 H             1 RES     
    5126 C           21.6284    43.5395     3.5586 C             1 RES     
    5127 H           20.7718    44.1596     3.2097 H             1 RES     
    5128 H           21.3322    42.4743     3.4260 H             1 RES     
    5129 C           22.7951    43.8039     2.5960 C             1 RES     
    5130 H           23.6674    43.1486     2.7918 H             1 RES     
    5131 H           23.0947    44.8708     2.5707 H             1 RES     
    5132 P           22.0123    44.7719     0.4318 P             1 RES     
    5133 O           21.7574    44.4465    -1.1139 O             1 RES     
    5134 O           22.5707    43.4655     1.1676 O             1 RES     
    5135 O           23.1164    45.9288     0.4849 O             1 RES     
    5136 O           20.5968    45.1753     1.0592 O             1 RES     
    5137 C           21.2411    45.6783    -1.7631 C             1 RES     
    5138 H           21.9761    46.4769    -1.6628 H             1 RES     
    5139 H           20.3097    45.9786    -1.2830 H             1 RES     
    5140 C           21.3463    43.9418    -3.5797 C             1 RES     
    5141 H           22.3993    43.7713    -3.3557 H             1 RES     
    5142 H           20.7329    43.2730    -2.9759 H             1 RES     
    5143 C           20.9831    45.4030    -3.2561 C             1 RES     
    5144 H           19.9301    45.5735    -3.4801 H             1 RES     
    5145 C           22.4890    44.0843    -5.4006 C             1 RES     
    5146 O           23.3534    44.4683    -4.6142 O             1 RES     
    5147 O           21.1001    43.6791    -5.0049 O             1 RES     
    5148 C           22.6684    43.9522    -6.8131 C             1 RES     
    5149 H           21.9537    44.5898    -7.3334 H             1 RES     
    5150 H           22.5020    42.9127    -7.0959 H             1 RES     
    5151 C           24.1008    44.3657    -7.1991 C             1 RES     
    5152 H           24.8155    43.7281    -6.6788 H             1 RES     
    5153 H           24.2672    45.4051    -6.9162 H             1 RES     
    5154 C           24.2881    44.2116    -8.7199 C             1 RES     
    5155 H           23.5734    44.8493    -9.2402 H             1 RES     
    5156 H           24.1216    43.1722    -9.0027 H             1 RES     
    5157 C           25.7204    44.6252    -9.1059 C             1 RES     
    5158 H           26.4351    43.9876    -8.5856 H             1 RES     
    5159 H           25.8869    45.6646    -8.8231 H             1 RES     
    5160 C           25.9077    44.4711   -10.6267 C             1 RES     
    5161 H           25.1930    45.1088   -11.1470 H             1 RES     
    5162 H           25.7412    43.4317   -10.9096 H             1 RES     
    5163 C           27.3400    44.8847   -11.0127 C             1 RES     
    5164 H           28.0547    44.2471   -10.4924 H             1 RES     
    5165 H           27.5065    45.9241   -10.7299 H             1 RES     
    5166 C           27.5273    44.7306   -12.5335 C             1 RES     
    5167 H           26.8126    45.3683   -13.0538 H             1 RES     
    5168 H           27.3609    43.6912   -12.8164 H             1 RES     
    5169 C           28.9597    45.1442   -12.9196 C             1 RES     
    5170 H           29.6744    44.5066   -12.3993 H             1 RES     
    5171 H           29.1261    46.1836   -12.6367 H             1 RES     
    5172 C           29.1470    44.9901   -14.4403 C             1 RES     
    5173 H           28.4323    45.6278   -14.9606 H             1 RES     
    5174 H           28.9805    43.9507   -14.7232 H             1 RES     
    5175 C           30.5793    45.4037   -14.8264 C             1 RES     
    5176 H           31.2940    44.7661   -14.3061 H             1 RES     
    5177 H           30.7458    46.4431   -14.5435 H             1 RES     
    5178 C           30.7666    45.2496   -16.3472 C             1 RES     
    5179 H           30.0519    45.8873   -16.8675 H             1 RES     
    5180 H           30.6001    44.2102   -16.6300 H             1 RES     
    5181 C           32.1989    45.6632   -16.7332 C             1 RES     
    5182 H           32.9136    45.0256   -16.2129 H             1 RES     
    5183 H           32.3654    46.7026   -16.4503 H             1 RES     
    5184 C           32.3862    45.5091   -18.2540 C             1 RES     
    5185 H           31.6715    46.1467   -18.7743 H             1 RES     
    5186 H           32.2198    44.4697   -18.5368 H             1 RES     
    5187 C           33.8186    45.9227   -18.6400 C             1 RES     
    5188 H           34.5333    45.2851   -18.1197 H             1 RES     
    5189 H           33.9850    46.9621   -18.3572 H             1 RES     
    5190 C           34.0059    45.7686   -20.1608 C             1 RES     
    5191 H           33.2912    46.4062   -20.6811 H             1 RES     
    5192 H           33.8394    44.7292   -20.4437 H             1 RES     
    5193 C           35.4382    46.1822   -20.5468 C             1 RES     
    5194 H           36.1529    45.5446   -20.0265 H             1 RES     
    5195 H           35.6047    47.2216   -20.2640 H             1 RES     
    5196 C           35.6170    46.0351   -21.9985 C             1 RES     
    5197 H           35.9465    45.0272   -21.8558 H             1 RES     
    5198 H           36.2168    46.5036   -22.7508 H             1 RES     
    5199 H           34.5921    46.0352   -22.3080 H             1 RES     
    5200 C           21.1610    45.8062    -5.3250 C             1 RES     
    5201 O           20.2806    44.9509    -5.4051 O             1 RES     
    5202 O           21.7794    46.2712    -4.0400 O             1 RES     
    5203 C           21.7297    46.5017    -6.4375 C             1 RES     
    5204 H           22.8029    46.3149    -6.4751 H             1 RES     
    5205 H           21.5503    47.5700    -6.3171 H             1 RES     
    5206 C           21.0784    46.0163    -7.7459 C             1 RES     
    5207 H           20.0051    46.2031    -7.7082 H             1 RES     
    5208 H           21.2578    44.9480    -7.8662 H             1 RES     
    5209 C           21.6898    46.7766    -8.9374 C             1 RES     
    5210 H           22.7631    46.5899    -8.9750 H             1 RES     
    5211 H           21.5104    47.8450    -8.8170 H             1 RES     
    5212 C           21.0385    46.2913   -10.2457 C             1 RES     
    5213 H           19.9653    46.4780   -10.2081 H             1 RES     
    5214 H           21.2179    45.2229   -10.3661 H             1 RES     
    5215 C           21.6500    47.0516   -11.4372 C             1 RES     
    5216 H           22.7232    46.8648   -11.4749 H             1 RES     
    5217 H           21.4706    48.1199   -11.3169 H             1 RES     
    5218 C           20.9986    46.5663   -12.7456 C             1 RES     
    5219 H           19.9254    46.7530   -12.7079 H             1 RES     
    5220 H           21.1781    45.4979   -12.8660 H             1 RES     
    5221 C           21.6101    47.3265   -13.9371 C             1 RES     
    5222 H           22.6833    47.1398   -13.9747 H             1 RES     
    5223 H           21.4307    48.3949   -13.8167 H             1 RES     
    5224 C           20.9588    46.8412   -15.2454 C             1 RES     
    5225 H           19.8856    47.0280   -15.2078 H             1 RES     
    5226 H           21.1382    45.7728   -15.3658 H             1 RES     
    5227 C           21.5703    47.6015   -16.4369 C             1 RES     
    5228 H           22.6435    47.4147   -16.4746 H             1 RES     
    5229 H           21.3909    48.6699   -16.3166 H             1 RES     
    5230 C           20.9189    47.1162   -17.7453 C             1 RES     
    5231 H           19.8457    47.3029   -17.7077 H             1 RES     
    5232 H           21.0983    46.0478   -17.8657 H             1 RES     
    5233 C           21.5304    47.8764   -18.9368 C             1 RES     
    5234 H           22.6036    47.6897   -18.9745 H             1 RES     
    5235 H           21.3510    48.9448   -18.8164 H             1 RES     
    5236 C           20.8791    47.3911   -20.2452 C             1 RES     
    5237 H           19.8058    47.5779   -20.2075 H             1 RES     
    5238 H           21.0585    46.3227   -20.3655 H             1 RES     
    5239 C           21.4905    48.1514   -21.4367 C             1 RES     
    5240 H           22.5638    47.9646   -21.4743 H             1 RES     
    5241 H           21.3111    49.2198   -21.3163 H             1 RES     
    5242 C           20.8392    47.6661   -22.7450 C             1 RES     
    5243 H           19.7660    47.8528   -22.7074 H             1 RES     
    5244 H           21.0186    46.5977   -22.8654 H             1 RES     
    5245 C           21.4507    48.4264   -23.9365 C             1 RES     
    5246 H           22.5239    48.2396   -23.9742 H             1 RES     
    5247 H           21.2713    49.4947   -23.8162 H             1 RES     
    5248 C           20.7993    47.9410   -25.2449 C             1 RES     
    5249 H           19.7261    48.1278   -25.2073 H             1 RES     
    5250 H           20.9788    46.8727   -25.3653 H             1 RES     
    5251 C           21.3830    48.6668   -26.3822 C             1 RES     
    5252 H           20.6302    49.4211   -26.2873 H             1 RES     
    5253 H           21.5548    48.4622   -27.4185 H             1 RES     
    5254 H           22.2913    49.0100   -25.9311 H             1 RES     
    5255 N            0.0000    10.9545     5.0000 N             1 RES     
    5256 C           -0.0413    12.4204     5.2163 C             1 RES     
    5257 H            0.8116    12.9322     4.7226 H             1 RES     
    5258 H            0.0245    12.6664     6.3003 H             1 RES     
    5259 H           -0.9871    12.8560     4.8234 H             1 RES     
    5260 C            1.2835    10.4151     5.5091 C             1 RES     
    5261 H            1.3511     9.3172     5.3400 H             1 RES     
    5262 H            1.3894    10.6004     6.6018 H             1 RES     
    5263 H            2.1549    10.8990     5.0194 H             1 RES     
    5264 C           -1.1046    10.3375     5.7732 C             1 RES     
    5265 H           -1.0109    10.5582     6.8606 H             1 RES     
    5266 H           -1.1095     9.2304     5.6540 H             1 RES     
    5267 H           -2.0942    10.7209     5.4364 H             1 RES     
    5268 C           -0.1986    10.6129     3.5586 C             1 RES     
    5269 H           -1.1869    10.9891     3.2097 H             1 RES     
    5270 H           -0.2078     9.5073     3.4260 H             1 RES     
    5271 C            0.8594    11.1713     2.5960 C             1 RES     
    5272 H            1.8720    10.7651     2.7918 H             1 RES     
    5273 H            0.8715    12.2794     2.5707 H             1 RES     
    5274 P           -0.1480    11.9027     0.4318 P             1 RES     
    5275 O           -0.3097    11.5222    -1.1139 O             1 RES     
    5276 O            0.7306    10.7862     1.1676 O             1 RES     
    5277 O            0.6176    13.3066     0.4849 O             1 RES     
    5278 O           -1.6197    11.9244     1.0592 O             1 RES     
    5279 C           -1.1283    12.5775    -1.7631 C             1 RES     
    5280 H           -0.6260    13.5397    -1.6628 H             1 RES     
    5281 H           -2.1057    12.6256    -1.2830 H             1 RES     
    5282 C           -0.5755    10.9281    -3.5797 C             1 RES     
    5283 H            0.4857    11.0370    -3.3557 H             1 RES     
    5284 H           -0.9940    10.1228    -2.9759 H             1 RES     
    5285 C           -1.3058    12.2447    -3.2561 C             1 RES     
    5286 H           -2.3670    12.1358    -3.4801 H             1 RES     
    5287 C            0.4910    11.3625    -5.4006 C             1 RES     
    5288 O            1.2258    11.9579    -4.6142 O             1 RES     
    5289 O           -0.7450    10.6103    -5.0049 O             1 RES     
    5290 C            0.6986    11.2815    -6.8131 C             1 RES     
    5291 H           -0.1573    11.7116    -7.3334 H             1 RES     
    5292 H            0.8078    10.2345    -7.0959 H             1 RES     
    5293 C            1.9742    12.0530    -7.1991 C             1 RES     
    5294 H            2.8301    11.6230    -6.6788 H             1 RES     
    5295 H            1.8650    13.1000    -6.9162 H             1 RES     
    5296 C            2.1951    11.9529    -8.7199 C             1 RES     
    5297 H            1.3393    12.3829    -9.2402 H             1 RES     
    5298 H            2.3044    10.9059    -9.0027 H             1 RES     
    5299 C            3.4708    12.7244    -9.1059 C             1 RES     
    5300 H            4.3267    12.2943    -8.5856 H             1 RES     
    5301 H            3.3616    13.7714    -8.8231 H             1 RES     
    5302 C            3.6917    12.6243   -10.6267 C             1 RES     
    5303 H            2.8359    13.0543   -11.1470 H             1 RES     
    5304 H            3.8010    11.5773   -10.9096 H             1 RES     
    5305 C            4.9674    13.3958   -11.0127 C             1 RES     
    5306 H            5.8233    12.9657   -10.4924 H             1 RES     
    5307 H            4.8582    14.4427   -10.7299 H             1 RES     
    5308 C            5.1883    13.2956   -12.5335 C             1 RES     
    5309 H            4.3325    13.7257   -13.0538 H             1 RES     
    5310 H            5.2976    12.2487   -12.8164 H             1 RES     
    5311 C            6.4640    14.0671   -12.9196 C             1 RES     
    5312 H            7.3199    13.6371   -12.3993 H             1 RES     
    5313 H            6.3547    15.1141   -12.6367 H             1 RES     
    5314 C            6.6849    13.9670   -14.4403 C             1 RES     
    5315 H            5.8291    14.3971   -14.9606 H             1 RES     
    5316 H            6.7942    12.9200   -14.7232 H             1 RES     
    5317 C            7.9606    14.7385   -14.8264 C             1 RES     
    5318 H            8.8165    14.3085   -14.3061 H             1 RES     
    5319 H            7.8513    15.7855   -14.5435 H             1 RES     
    5320 C            8.1815    14.6384   -16.3472 C             1 RES     
    5321 H            7.3257    15.0684   -16.8675 H             1 RES     
    5322 H            8.2908    13.5914   -16.6300 H             1 RES     
    5323 C            9.4572    15.4099   -16.7332 C             1 RES     
    5324 H           10.3131    14.9798   -16.2129 H             1 RES     
    5325 H            9.3479    16.4569   -16.4503 H             1 RES     
    5326 C            9.6781    15.3098   -18.2540 C             1 RES     
    5327 H            8.8223    15.7398   -18.7743 H             1 RES     
    5328 H            9.7874    14.2628   -18.5368 H             1 RES     
    5329 C           10.9538    16.0813   -18.6400 C             1 RES     
    5330 H           11.8097    15.6512   -18.1197 H             1 RES     
    5331 H           10.8445    17.1282   -18.3572 H             1 RES     
    5332 C           11.1747    15.9811   -20.1608 C             1 RES     
    5333 H           10.3189    16.4112   -20.6811 H             1 RES     
    5334 H           11.2840    14.9342   -20.4437 H             1 RES     
    5335 C           12.4504    16.7526   -20.5468 C             1 RES     
    5336 H           13.3063    16.3226   -20.0265 H             1 RES     
    5337 H           12.3411    17.7996   -20.2640 H             1 RES     
    5338 C           12.6613    16.6571   -21.9985 C             1 RES     
    5339 H           13.2414    15.7693   -21.8558 H             1 RES     
    5340 H           13.1187    17.2653   -22.7508 H             1 RES     
    5341 H           11.6715    16.3909   -22.3080 H             1 RES     
    5342 C           -1.2389    12.6803    -5.3250 C             1 RES     
    5343 O           -1.8667    11.6256    -5.4051 O             1 RES     
    5344 O           -0.7625    13.2900    -4.0400 O             1 RES     
    5345 C           -0.8703    13.4996    -6.4375 C             1 RES     
    5346 H            0.2146    13.5981    -6.4751 H             1 RES     
    5347 H           -1.3211    14.4847    -6.3171 H             1 RES     
    5348 C           -1.3732    12.8617    -7.7459 C             1 RES     
    5349 H           -2.4581    12.7632    -7.7082 H             1 RES     
    5350 H           -0.9224    11.8766    -7.8662 H             1 RES     
    5351 C           -0.9803    13.7547    -8.9374 C             1 RES     
    5352 H            0.1046    13.8532    -8.9750 H             1 RES     
    5353 H           -1.4311    14.7398    -8.8170 H             1 RES     
    5354 C           -1.4831    13.1169   -10.2457 C             1 RES     
    5355 H           -2.5680    13.0184   -10.2081 H             1 RES     
    5356 H           -1.0323    12.1318   -10.3661 H             1 RES     
    5357 C           -1.0902    14.0099   -11.4372 C             1 RES     
    5358 H           -0.0053    14.1084   -11.4749 H             1 RES     
    5359 H           -1.5410    14.9950   -11.3169 H             1 RES     
    5360 C           -1.5931    13.3720   -12.7456 C             1 RES     
    5361 H           -2.6780    13.2735   -12.7079 H             1 RES     
    5362 H           -1.1422    12.3870   -12.8660 H             1 RES     
    5363 C           -1.2001    14.2651   -13.9371 C             1 RES     
    5364 H           -0.1152    14.3636   -13.9747 H             1 RES     
    5365 H           -1.6509    15.2501   -13.8167 H             1 RES     
    5366 C           -1.7030    13.6272   -15.2454 C             1 RES     
    5367 H           -2.7879    13.5287   -15.2078 H             1 RES     
    5368 H           -1.2522    12.6421   -15.3658 H             1 RES     
    5369 C           -1.3100    14.5202   -16.4369 C             1 RES     
    5370 H           -0.2251    14.6187   -16.4746 H             1 RES     
    5371 H           -1.7608    15.5053   -16.3166 H             1 RES     
    5372 C           -1.8129    13.8823   -17.7453 C             1 RES     
    5373 H           -2.8978    13.7839   -17.7077 H             1 RES     
    5374 H           -1.3621    12.8973   -17.8657 H             1 RES     
    5375 C           -1.4200    14.7754   -18.9368 C             1 RES     
    5376 H           -0.3351    14.8739   -18.9745 H             1 RES     
    5377 H           -1.8708    15.7605   -18.8164 H             1 RES     
    5378 C           -1.9228    14.1375   -20.2452 C             1 RES     
    5379 H           -3.0077    14.0390   -20.2075 H             1 RES     
    5380 H           -1.4720    13.1524   -20.3655 H             1 RES     
    5381 C           -1.5299    15.0305   -21.4367 C             1 RES     
    5382 H           -0.4450    15.1290   -21.4743 H             1 RES     
    5383 H           -1.9807    16.0156   -21.3163 H             1 RES     
    5384 C           -2.0328    14.3927   -22.7450 C             1 RES     
    5385 H           -3.1177    14.2942   -22.7074 H             1 RES     
    5386 H           -1.5820    13.4076   -22.8654 H             1 RES     
    5387 C           -1.6398    15.2857   -23.9365 C             1 RES     
    5388 H           -0.5549    15.3842   -23.9742 H             1 RES     
    5389 H           -2.0906    16.2708   -23.8162 H             1 RES     
    5390 C           -2.1427    14.6478   -25.2449 C             1 RES     
    5391 H           -3.2276    14.5493   -25.2073 H             1 RES     
    5392 H           -1.6919    13.6627   -25.3653 H             1 RES     
    5393 C           -1.7676    15.5003   -26.3822 C             1 RES     
    5394 H           -2.6906    16.0331   -26.2873 H             1 RES     
    5395 H           -1.5486    15.3474   -27.4185 H             1 RES     
    5396 H           -0.9797    16.0677   -25.9311 H             1 RES     
    5397 N           38.3406    16.4317     5.0000 N             1 RES     
    5398 C           38.4233    17.8958     5.2163 C             1 RES     
    5399 H           39.3164    18.3337     4.7226 H             1 RES     
    5400 H           38.5098    18.1354     6.3003 H             1 RES     
    5401 H           37.5178    18.4099     4.8234 H             1 RES     
    5402 C           39.5739    15.7857     5.5091 C             1 RES     
    5403 H           39.5484    14.6860     5.3400 H             1 RES     
    5404 H           39.6951    15.9614     6.6018 H             1 RES     
    5405 H           40.4831    16.1943     5.0194 H             1 RES     
    5406 C           37.1877    15.9103     5.7732 C             1 RES     
    5407 H           37.2998    16.1223     6.8606 H             1 RES     
    5408 H           37.0893    14.8076     5.6540 H             1 RES     
    5409 H           36.2341    16.3760     5.4364 H             1 RES     
    5410 C           38.1138    16.1081     3.5586 C             1 RES     
    5411 H           37.1609    16.5665     3.2097 H             1 RES     
    5412 H           38.0111    15.0073     3.4260 H             1 RES     
    5413 C           39.2152    16.5750     2.5960 C             1 RES     
    5414 H           40.1899    16.0847     2.7918 H             1 RES     
    5415 H           39.3210    17.6782     2.5707 H             1 RES     
    5416 P           38.2733    17.3890     0.4318 P             1 RES     
    5417 O           38.0800    17.0236    -1.1139 O             1 RES     
    5418 O           39.0544    16.2022     1.1676 O             1 RES     
    5419 O           39.1548    18.7232     0.4849 O             1 RES     
    5420 O           36.8087    17.5351     1.0592 O             1 RES     
    5421 C           37.3536    18.1443    -1.7631 C             1 RES     
    5422 H           37.9354    19.0606    -1.6628 H             1 RES     
    5423 H           36.3837    18.2748    -1.2830 H             1 RES     
    5424 C           37.7649    16.4540    -3.5797 C             1 RES     
    5425 H           38.8315    16.4728    -3.3557 H             1 RES     
    5426 H           37.2798    15.6871    -2.9759 H             1 RES     
    5427 C           37.1485    17.8277    -3.2561 C             1 RES     
    5428 H           36.0819    17.8089    -3.4801 H             1 RES     
    5429 C           38.8643    16.7968    -5.4006 C             1 RES     
    5430 O           39.6469    17.3279    -4.6142 O             1 RES     
    5431 O           37.5691    16.1518    -5.0049 O             1 RES     
    5432 C           39.0643    16.6985    -6.8131 C             1 RES     
    5433 H           38.2479    17.1994    -7.3334 H             1 RES     
    5434 H           39.0846    15.6460    -7.0959 H             1 RES     
    5435 C           40.4006    17.3594    -7.1991 C             1 RES     
    5436 H           41.2170    16.8585    -6.6788 H             1 RES     
    5437 H           40.3803    18.4118    -6.9162 H             1 RES     
    5438 C           40.6123    17.2409    -8.7199 C             1 RES     
    5439 H           39.7959    17.7418    -9.2402 H             1 RES     
    5440 H           40.6327    16.1885    -9.0027 H             1 RES     
    5441 C           41.9486    17.9018    -9.1059 C             1 RES     
    5442 H           42.7650    17.4010    -8.5856 H             1 RES     
    5443 H           41.9283    18.9543    -8.8231 H             1 RES     
    5444 C           42.1603    17.7834   -10.6267 C             1 RES     
    5445 H           41.3439    18.2842   -11.1470 H             1 RES     
    5446 H           42.1807    16.7309   -10.9096 H             1 RES     
    5447 C           43.4966    18.4443   -11.0127 C             1 RES     
    5448 H           44.3130    17.9434   -10.4924 H             1 RES     
    5449 H           43.4763    19.4967   -10.7299 H             1 RES     
    5450 C           43.7083    18.3258   -12.5335 C             1 RES     
    5451 H           42.8919    18.8267   -13.0538 H             1 RES     
    5452 H           43.7287    17.2734   -12.8164 H             1 RES     
    5453 C           45.0446    18.9867   -12.9196 C             1 RES     
    5454 H           45.8610    18.4858   -12.3993 H             1 RES     
    5455 H           45.0243    20.0392   -12.6367 H             1 RES     
    5456 C           45.2563    18.8683   -14.4403 C             1 RES     
    5457 H           44.4399    19.3691   -14.9606 H             1 RES     
    5458 H           45.2767    17.8158   -14.7232 H             1 RES     
    5459 C           46.5926    19.5291   -14.8264 C             1 RES     
    5460 H           47.4090    19.0283   -14.3061 H             1 RES     
    5461 H           46.5723    20.5816   -14.5435 H             1 RES     
    5462 C           46.8043    19.4107   -16.3472 C             1 RES     
    5463 H           45.9879    19.9115   -16.8675 H             1 RES     
    5464 H           46.8247    18.3582   -16.6300 H             1 RES     
    5465 C           48.1406    20.0716   -16.7332 C             1 RES     
    5466 H           48.9570    19.5707   -16.2129 H             1 RES     
    5467 H           48.1203    21.1240   -16.4503 H             1 RES     
    5468 C           48.3523    19.9531   -18.2540 C             1 RES     
    5469 H           47.5359    20.4540   -18.7743 H             1 RES     
    5470 H           48.3727    18.9007   -18.5368 H             1 RES     
    5471 C           49.6886    20.6140   -18.6400 C             1 RES     
    5472 H           50.5051    20.1131   -18.1197 H             1 RES     
    5473 H           49.6683    21.6665   -18.3572 H             1 RES     
    5474 C           49.9003    20.4956   -20.1608 C             1 RES     
    5475 H           49.0839    20.9964   -20.6811 H             1 RES     
    5476 H           49.9207    19.4431   -20.4437 H             1 RES     
    5477 C           51.2366    21.1564   -20.5468 C             1 RES     
    5478 H           52.0531    20.6556   -20.0265 H             1 RES     
    5479 H           51.2163    22.2089   -20.2640 H             1 RES     
    5480 C           51.4387    21.0434   -21.9985 C             1 RES     
    5481 H           51.9416    20.1098   -21.8558 H             1 RES     
    5482 H           51.9459    21.6108   -22.7508 H             1 RES     
    5483 H           50.4300    20.8618   -22.3080 H             1 RES     
    5484 C           37.2521    18.2561    -5.3250 C             1 RES     
    5485 O           36.5373    17.2583    -5.4051 O             1 RES     
    5486 O           37.7783    18.8233    -4.0400 O             1 RES     
    5487 C           37.6886    19.0413    -6.4375 C             1 RES     
    5488 H           38.7779    19.0477    -6.4751 H             1 RES     
    5489 H           37.3226    20.0610    -6.3171 H             1 RES     
    5490 C           37.1335    18.4482    -7.7459 C             1 RES     
    5491 H           36.0442    18.4418    -7.7082 H             1 RES     
    5492 H           37.4995    17.4285    -7.8662 H             1 RES     
    5493 C           37.6006    19.3048    -8.9374 C             1 RES     
    5494 H           38.6899    19.3112    -8.9750 H             1 RES     
    5495 H           37.2347    20.3245    -8.8170 H             1 RES     
    5496 C           37.0456    18.7118   -10.2457 C             1 RES     
    5497 H           35.9563    18.7053   -10.2081 H             1 RES     
    5498 H           37.4115    17.6921   -10.3661 H             1 RES     
    5499 C           37.5126    19.5684   -11.4372 C             1 RES     
    5500 H           38.6020    19.5748   -11.4749 H             1 RES     
    5501 H           37.1467    20.5880   -11.3169 H             1 RES     
    5502 C           36.9576    18.9753   -12.7456 C             1 RES     
    5503 H           35.8683    18.9689   -12.7079 H             1 RES     
    5504 H           37.3235    17.9556   -12.8660 H             1 RES     
    5505 C           37.4247    19.8319   -13.9371 C             1 RES     
    5506 H           38.5140    19.8383   -13.9747 H             1 RES     
    5507 H           37.0588    20.8516   -13.8167 H             1 RES     
    5508 C           36.8697    19.2388   -15.2454 C             1 RES     
    5509 H           35.7803    19.2324   -15.2078 H             1 RES     
    5510 H           37.2356    18.2192   -15.3658 H             1 RES     
    5511 C           37.3367    20.0954   -16.4369 C             1 RES     
    5512 H           38.4261    20.1019   -16.4746 H             1 RES     
    5513 H           36.9708    21.1151   -16.3166 H             1 RES     
    5514 C           36.7817    19.5024   -17.7453 C             1 RES     
    5515 H           35.6924    19.4960   -17.7077 H             1 RES     
    5516 H           37.1476    18.4827   -17.8657 H             1 RES     
    5517 C           37.2488    20.3590   -18.9368 C             1 RES     
    5518 H           38.3381    20.3654   -18.9745 H             1 RES     
    5519 H           36.8828    21.3786   -18.8164 H             1 RES     
    5520 C           36.6937    19.7659   -20.2452 C             1 RES     
    5521 H           35.6044    19.7595   -20.2075 H             1 RES     
    5522 H           37.0597    18.7462   -20.3655 H             1 RES     
    5523 C           37.1608    20.6225   -21.4367 C             1 RES     
    5524 H           38.2501    20.6289   -21.4743 H             1 RES     
    5525 H           36.7949    21.6422   -21.3163 H             1 RES     
    5526 C           36.6058    20.0294   -22.7450 C             1 RES     
    5527 H           35.5165    20.0230   -22.7074 H             1 RES     
    5528 H           36.9717    19.0098   -22.8654 H             1 RES     
    5529 C           37.0728    20.8861   -23.9365 C             1 RES     
    5530 H           38.1622    20.8925   -23.9742 H             1 RES     
    5531 H           36.7069    21.9057   -23.8162 H             1 RES     
    5532 C           36.5178    20.2930   -25.2449 C             1 RES     
    5533 H           35.4285    20.2866   -25.2073 H             1 RES     
    5534 H           36.8837    19.2733   -25.3653 H             1 RES     
    5535 C           36.9637    21.1107   -26.3822 C             1 RES     
    5536 H           36.0890    21.7197   -26.2873 H             1 RES     
    5537 H           37.1689    20.9398   -27.4185 H             1 RES     
    5538 H           37.7967    21.6094   -25.9311 H             1 RES     
    5539 N           49.2950    32.8634     5.0000 N             1 RES     
    5540 C           49.5827    34.3013     5.2163 C             1 RES     
    5541 H           50.5285    34.6093     4.7226 H             1 RES     
    5542 H           49.7020    34.5264     6.3003 H             1 RES     
    5543 H           48.7585    34.9376     4.8234 H             1 RES     
    5544 C           50.4253    32.0505     5.5091 C             1 RES     
    5545 H           50.2455    30.9653     5.3400 H             1 RES     
    5546 H           50.5700    32.2074     6.6018 H             1 RES     
    5547 H           51.3829    32.3272     5.0194 H             1 RES     
    5548 C           48.0803    32.5092     5.7732 C             1 RES     
    5549 H           48.2211    32.7033     6.8606 H             1 RES     
    5550 H           47.8279    31.4313     5.6540 H             1 RES     
    5551 H           47.2016    33.1043     5.4364 H             1 RES     
    5552 C           49.0250    32.5749     3.5586 C             1 RES     
    5553 H           48.1460    33.1626     3.2097 H             1 RES     
    5554 H           48.7686    31.4994     3.4260 H             1 RES     
    5555 C           50.1811    32.8824     2.5960 C             1 RES     
    5556 H           51.0772    32.2599     2.7918 H             1 RES     
    5557 H           50.4409    33.9597     2.5707 H             1 RES     
    5558 P           49.3630    33.8207     0.4318 P             1 RES     
    5559 O           49.1203    33.4860    -1.1139 O             1 RES     
    5560 O           49.9695    32.5359     1.1676 O             1 RES     
    5561 O           50.4233    35.0177     0.4849 O             1 RES     
    5562 O           47.9334    34.1712     1.0592 O             1 RES     
    5563 C           48.5586    34.6977    -1.7631 C             1 RES     
    5564 H           49.2634    35.5231    -1.6628 H             1 RES     
    5565 H           47.6167    34.9633    -1.2830 H             1 RES     
    5566 C           48.7282    32.9664    -3.5797 C             1 RES     
    5567 H           49.7868    32.8351    -3.3557 H             1 RES     
    5568 H           48.1401    32.2752    -2.9759 H             1 RES     
    5569 C           48.3110    34.4131    -3.2561 C             1 RES     
    5570 H           47.2524    34.5443    -3.4801 H             1 RES     
    5571 C           49.8649    33.1512    -5.4006 C             1 RES     
    5572 O           50.7143    33.5671    -4.6142 O             1 RES     
    5573 O           48.4919    32.6947    -5.0049 O             1 RES     
    5574 C           50.0491    33.0258    -6.8131 C             1 RES     
    5575 H           49.3111    33.6365    -7.3334 H             1 RES     
    5576 H           49.9213    31.9809    -7.0959 H             1 RES     
    5577 C           51.4650    33.4923    -7.1991 C             1 RES     
    5578 H           52.2029    32.8817    -6.6788 H             1 RES     
    5579 H           51.5928    34.5372    -6.9162 H             1 RES     
    5580 C           51.6579    33.3453    -8.7199 C             1 RES     
    5581 H           50.9200    33.9559    -9.2402 H             1 RES     
    5582 H           51.5302    32.3004    -9.0027 H             1 RES     
    5583 C           53.0739    33.8118    -9.1059 C             1 RES     
    5584 H           53.8118    33.2011    -8.5856 H             1 RES     
    5585 H           53.2017    34.8567    -8.8231 H             1 RES     
    5586 C           53.2668    33.6648   -10.6267 C             1 RES     
    5587 H           52.5289    34.2754   -11.1470 H             1 RES     
    5588 H           53.1390    32.6199   -10.9096 H             1 RES     
    5589 C           54.6828    34.1313   -11.0127 C             1 RES     
    5590 H           55.4207    33.5206   -10.4924 H             1 RES     
    5591 H           54.8105    35.1761   -10.7299 H             1 RES     
    5592 C           54.8757    33.9842   -12.5335 C             1 RES     
    5593 H           54.1378    34.5949   -13.0538 H             1 RES     
    5594 H           54.7479    32.9394   -12.8164 H             1 RES     
    5595 C           56.2916    34.4507   -12.9196 C             1 RES     
    5596 H           57.0296    33.8401   -12.3993 H             1 RES     
    5597 H           56.4194    35.4956   -12.6367 H             1 RES     
    5598 C           56.4846    34.3037   -14.4403 C             1 RES     
    5599 H           55.7467    34.9144   -14.9606 H             1 RES     
    5600 H           56.3568    33.2588   -14.7232 H             1 RES     
    5601 C           57.9005    34.7702   -14.8264 C             1 RES     
    5602 H           58.6384    34.1596   -14.3061 H             1 RES     
    5603 H           58.0283    35.8151   -14.5435 H             1 RES     
    5604 C           58.0934    34.6232   -16.3472 C             1 RES     
    5605 H           57.3555    35.2338   -16.8675 H             1 RES     
    5606 H           57.9657    33.5783   -16.6300 H             1 RES     
    5607 C           59.5094    35.0897   -16.7332 C             1 RES     
    5608 H           60.2473    34.4791   -16.2129 H             1 RES     
    5609 H           59.6372    36.1346   -16.4503 H             1 RES     
    5610 C           59.7023    34.9427   -18.2540 C             1 RES     
    5611 H           58.9644    35.5533   -18.7743 H             1 RES     
    5612 H           59.5746    33.8978   -18.5368 H             1 RES     
    5613 C           61.1183    35.4092   -18.6400 C             1 RES     
    5614 H           61.8562    34.7985   -18.1197 H             1 RES     
    5615 H           61.2460    36.4540   -18.3572 H             1 RES     
    5616 C           61.3112    35.2622   -20.1608 C             1 RES     
    5617 H           60.5733    35.8728   -20.6811 H             1 RES     
    5618 H           61.1834    34.2173   -20.4437 H             1 RES     
    5619 C           62.7272    35.7286   -20.5468 C             1 RES     
    5620 H           63.4651    35.1180   -20.0265 H             1 RES     
    5621 H           62.8549    36.7735   -20.2640 H             1 RES     
    5622 C           62.9113    35.5883   -21.9985 C             1 RES     
    5623 H           63.2780    34.5933   -21.8558 H             1 RES     
    5624 H           63.4932    36.0788   -22.7508 H             1 RES     
    5625 H           61.8871    35.5503   -22.3080 H             1 RES     
    5626 C           48.4737    34.8226    -5.3250 C             1 RES     
    5627 O           47.6258    33.9352    -5.4051 O             1 RES     
    5628 O           49.0744    35.3103    -4.0400 O             1 RES     
    5629 C           49.0163    35.5387    -6.4375 C             1 RES     
    5630 H           50.0957    35.3919    -6.4751 H             1 RES     
    5631 H           48.7973    36.5997    -6.3171 H             1 RES     
    5632 C           48.3834    35.0295    -7.7459 C             1 RES     
    5633 H           47.3040    35.1763    -7.7082 H             1 RES     
    5634 H           48.6024    33.9685    -7.8662 H             1 RES     
    5635 C           48.9662    35.8120    -8.9374 C             1 RES     
    5636 H           50.0456    35.6652    -8.9750 H             1 RES     
    5637 H           48.7473    36.8730    -8.8170 H             1 RES     
    5638 C           48.3334    35.3028   -10.2457 C             1 RES     
    5639 H           47.2539    35.4496   -10.2081 H             1 RES     
    5640 H           48.5523    34.2418   -10.3661 H             1 RES     
    5641 C           48.9162    36.0853   -11.4372 C             1 RES     
    5642 H           49.9956    35.9385   -11.4749 H             1 RES     
    5643 H           48.6972    37.1462   -11.3169 H             1 RES     
    5644 C           48.2833    35.5761   -12.7456 C             1 RES     
    5645 H           47.2039    35.7229   -12.7079 H             1 RES     
    5646 H           48.5023    34.5151   -12.8660 H             1 RES     
    5647 C           48.8661    36.3586   -13.9371 C             1 RES     
    5648 H           49.9455    36.2118   -13.9747 H             1 RES     
    5649 H           48.6472    37.4195   -13.8167 H             1 RES     
    5650 C           48.2333    35.8494   -15.2454 C             1 RES     
    5651 H           47.1538    35.9961   -15.2078 H             1 RES     
    5652 H           48.4522    34.7884   -15.3658 H             1 RES     
    5653 C           48.8161    36.6318   -16.4369 C             1 RES     
    5654 H           49.8955    36.4851   -16.4746 H             1 RES     
    5655 H           48.5971    37.6928   -16.3166 H             1 RES     
    5656 C           48.1832    36.1227   -17.7453 C             1 RES     
    5657 H           47.1038    36.2694   -17.7077 H             1 RES     
    5658 H           48.4022    35.0617   -17.8657 H             1 RES     
    5659 C           48.7660    36.9051   -18.9368 C             1 RES     
    5660 H           49.8455    36.7584   -18.9745 H             1 RES     
    5661 H           48.5471    37.9661   -18.8164 H             1 RES     
    5662 C           48.1332    36.3960   -20.2452 C             1 RES     
    5663 H           47.0538    36.5427   -20.2075 H             1 RES     
    5664 H           48.3521    35.3350   -20.3655 H             1 RES     
    5665 C           48.7160    37.1784   -21.4367 C             1 RES     
    5666 H           49.7954    37.0317   -21.4743 H             1 RES     
    5667 H           48.4970    38.2394   -21.3163 H             1 RES     
    5668 C           48.0831    36.6692   -22.7450 C             1 RES     
    5669 H           47.0037    36.8160   -22.7074 H             1 RES     
    5670 H           48.3021    35.6083   -22.8654 H             1 RES     
    5671 C           48.6659    37.4517   -23.9365 C             1 RES     
    5672 H           49.7454    37.3049   -23.9742 H             1 RES     
    5673 H           48.4470    38.5127   -23.8162 H             1 RES     
    5674 C           48.0331    36.9425   -25.2449 C             1 RES     
    5675 H           46.9537    37.0893   -25.2073 H             1 RES     
    5676 H           48.2521    35.8816   -25.3653 H             1 RES     
    5677 C           48.5894    37.6894   -26.3822 C             1 RES     
    5678 H           47.8090    38.4153   -26.2873 H             1 RES     
    5679 H           48.7686    37.4914   -27.4185 H             1 RES     
    5680 H           49.4843    38.0662   -25.9311 H             1 RES     
    5681 N           43.8178    32.8634     5.0000 N             1 RES     
    5682 C           43.9809    34.3208     5.2163 C             1 RES     
    5683 H           44.8967    34.7089     4.7226 H             1 RES     
    5684 H           44.0804    34.5552     6.3003 H             1 RES     
    5685 H           43.1050    34.8838     4.8234 H             1 RES     
    5686 C           45.0138    32.1506     5.5091 C             1 RES     
    5687 H           44.9278    31.0540     5.3400 H             1 RES     
    5688 H           45.1444    32.3194     6.6018 H             1 RES     
    5689 H           45.9440    32.5085     5.0194 H             1 RES     
    5690 C           42.6380    32.4062     5.7732 C             1 RES     
    5691 H           42.7616    32.6117     6.8606 H             1 RES     
    5692 H           42.4791    31.3105     5.6540 H             1 RES     
    5693 H           41.7114    32.9236     5.4364 H             1 RES     
    5694 C           43.5736    32.5527     3.5586 C             1 RES     
    5695 H           42.6473    33.0628     3.2097 H             1 RES     
    5696 H           43.4106    31.4592     3.4260 H             1 RES     
    5697 C           44.6990    32.9584     2.5960 C             1 RES     
    5698 H           45.6452    32.4153     2.7918 H             1 RES     
    5699 H           44.8653    34.0541     2.5707 H             1 RES     
    5700 P           43.8032    33.8230     0.4318 P             1 RES     
    5701 O           43.5902    33.4687    -1.1139 O             1 RES     
    5702 O           44.5179    32.5950     1.1676 O             1 RES     
    5703 O           44.7568    35.1067     0.4849 O             1 RES     
    5704 O           42.3489    34.0493     1.0592 O             1 RES     
    5705 C           42.9264    34.6277    -1.7631 C             1 RES     
    5706 H           43.5577    35.5106    -1.6628 H             1 RES     
    5707 H           41.9652    34.8113    -1.2830 H             1 RES     
    5708 C           43.2442    32.9173    -3.5797 C             1 RES     
    5709 H           44.3102    32.8775    -3.3557 H             1 RES     
    5710 H           42.7177    32.1782    -2.9759 H             1 RES     
    5711 C           42.7042    34.3228    -3.2561 C             1 RES     
    5712 H           41.6383    34.3626    -3.4801 H             1 RES     
    5713 C           44.3608    33.1991    -5.4006 C             1 RES     
    5714 O           45.1714    33.6864    -4.6142 O             1 RES     
    5715 O           43.0321    32.6263    -5.0049 O             1 RES     
    5716 C           44.5551    33.0900    -6.8131 C             1 RES     
    5717 H           43.7674    33.6350    -7.3334 H             1 RES     
    5718 H           44.5176    32.0380    -7.0959 H             1 RES     
    5719 C           45.9257    33.6764    -7.1991 C             1 RES     
    5720 H           46.7134    33.1315    -6.6788 H             1 RES     
    5721 H           45.9632    34.7284    -6.9162 H             1 RES     
    5722 C           46.1306    33.5465    -8.7199 C             1 RES     
    5723 H           45.3429    34.0915    -9.2402 H             1 RES     
    5724 H           46.0930    32.4946    -9.0027 H             1 RES     
    5725 C           47.5012    34.1330    -9.1059 C             1 RES     
    5726 H           48.2888    33.5880    -8.5856 H             1 RES     
    5727 H           47.5387    35.1850    -8.8231 H             1 RES     
    5728 C           47.7060    34.0031   -10.6267 C             1 RES     
    5729 H           46.9184    34.5481   -11.1470 H             1 RES     
    5730 H           47.6685    32.9511   -10.9096 H             1 RES     
    5731 C           49.0767    34.5895   -11.0127 C             1 RES     
    5732 H           49.8643    34.0445   -10.4924 H             1 RES     
    5733 H           49.1142    35.6415   -10.7299 H             1 RES     
    5734 C           49.2815    34.4596   -12.5335 C             1 RES     
    5735 H           48.4939    35.0046   -13.0538 H             1 RES     
    5736 H           49.2440    33.4076   -12.8164 H             1 RES     
    5737 C           50.6521    35.0461   -12.9196 C             1 RES     
    5738 H           51.4398    34.5011   -12.3993 H             1 RES     
    5739 H           50.6897    36.0981   -12.6367 H             1 RES     
    5740 C           50.8570    34.9162   -14.4403 C             1 RES     
    5741 H           50.0693    35.4611   -14.9606 H             1 RES     
    5742 H           50.8195    33.8642   -14.7232 H             1 RES     
    5743 C           52.2276    35.5026   -14.8264 C             1 RES     
    5744 H           53.0153    34.9576   -14.3061 H             1 RES     
    5745 H           52.2651    36.5546   -14.5435 H             1 RES     
    5746 C           52.4325    35.3727   -16.3472 C             1 RES     
    5747 H           51.6448    35.9177   -16.8675 H             1 RES     
    5748 H           52.3949    34.3207   -16.6300 H             1 RES     
    5749 C           53.8031    35.9591   -16.7332 C             1 RES     
    5750 H           54.5907    35.4142   -16.2129 H             1 RES     
    5751 H           53.8406    37.0111   -16.4503 H             1 RES     
    5752 C           54.0079    35.8292   -18.2540 C             1 RES     
    5753 H           53.2203    36.3742   -18.7743 H             1 RES     
    5754 H           53.9704    34.7773   -18.5368 H             1 RES     
    5755 C           55.3786    36.4157   -18.6400 C             1 RES     
    5756 H           56.1662    35.8707   -18.1197 H             1 RES     
    5757 H           55.4161    37.4677   -18.3572 H             1 RES     
    5758 C           55.5834    36.2858   -20.1608 C             1 RES     
    5759 H           54.7958    36.8308   -20.6811 H             1 RES     
    5760 H           55.5459    35.2338   -20.4437 H             1 RES     
    5761 C           56.9540    36.8722   -20.5468 C             1 RES     
    5762 H           57.7417    36.3272   -20.0265 H             1 RES     
    5763 H           56.9915    37.9242   -20.2640 H             1 RES     
    5764 C           57.1496    36.7482   -21.9985 C             1 RES     
    5765 H           57.6004    35.7884   -21.8558 H             1 RES     
    5766 H           57.6872    37.2869   -22.7508 H             1 RES     
    5767 H           56.1324    36.6224   -22.3080 H             1 RES     
    5768 C           42.8312    34.7448    -5.3250 C             1 RES     
    5769 O           42.0627    33.7878    -5.4051 O             1 RES     
    5770 O           43.3878    35.2823    -4.0400 O             1 RES     
    5771 C           43.3102    35.5049    -6.4375 C             1 RES     
    5772 H           44.3982    35.4514    -6.4751 H             1 RES     
    5773 H           43.0009    36.5431    -6.3171 H             1 RES     
    5774 C           42.7234    34.9432    -7.7459 C             1 RES     
    5775 H           41.6354    34.9966    -7.7082 H             1 RES     
    5776 H           43.0327    33.9049    -7.8662 H             1 RES     
    5777 C           43.2368    35.7728    -8.9374 C             1 RES     
    5778 H           44.3249    35.7194    -8.9750 H             1 RES     
    5779 H           42.9275    36.8111    -8.8170 H             1 RES     
    5780 C           42.6501    35.2112   -10.2457 C             1 RES     
    5781 H           41.5620    35.2646   -10.2081 H             1 RES     
    5782 H           42.9594    34.1729   -10.3661 H             1 RES     
    5783 C           43.1635    36.0408   -11.4372 C             1 RES     
    5784 H           44.2515    35.9873   -11.4749 H             1 RES     
    5785 H           42.8542    37.0790   -11.3169 H             1 RES     
    5786 C           42.5767    35.4791   -12.7456 C             1 RES     
    5787 H           41.4887    35.5326   -12.7079 H             1 RES     
    5788 H           42.8861    34.4409   -12.8660 H             1 RES     
    5789 C           43.0902    36.3088   -13.9371 C             1 RES     
    5790 H           44.1782    36.2553   -13.9747 H             1 RES     
    5791 H           42.7808    37.3470   -13.8167 H             1 RES     
    5792 C           42.5034    35.7471   -15.2454 C             1 RES     
    5793 H           41.4154    35.8006   -15.2078 H             1 RES     
    5794 H           42.8127    34.7089   -15.3658 H             1 RES     
    5795 C           43.0168    36.5768   -16.4369 C             1 RES     
    5796 H           44.1049    36.5233   -16.4746 H             1 RES     
    5797 H           42.7075    37.6150   -16.3166 H             1 RES     
    5798 C           42.4300    36.0151   -17.7453 C             1 RES     
    5799 H           41.3420    36.0685   -17.7077 H             1 RES     
    5800 H           42.7394    34.9768   -17.8657 H             1 RES     
    5801 C           42.9435    36.8447   -18.9368 C             1 RES     
    5802 H           44.0315    36.7913   -18.9745 H             1 RES     
    5803 H           42.6342    37.8830   -18.8164 H             1 RES     
    5804 C           42.3567    36.2831   -20.2452 C             1 RES     
    5805 H           41.2687    36.3365   -20.2075 H             1 RES     
    5806 H           42.6660    35.2448   -20.3655 H             1 RES     
    5807 C           42.8701    37.1127   -21.4367 C             1 RES     
    5808 H           43.9582    37.0592   -21.4743 H             1 RES     
    5809 H           42.5608    38.1509   -21.3163 H             1 RES     
    5810 C           42.2834    36.5510   -22.7450 C             1 RES     
    5811 H           41.1953    36.6045   -22.7074 H             1 RES     
    5812 H           42.5927    35.5128   -22.8654 H             1 RES     
    5813 C           42.7968    37.3807   -23.9365 C             1 RES     
    5814 H           43.8848    37.3272   -23.9742 H             1 RES     
    5815 H           42.4875    38.4189   -23.8162 H             1 RES     
    5816 C           42.2100    36.8190   -25.2449 C             1 RES     
    5817 H           41.1220    36.8725   -25.2073 H             1 RES     
    5818 H           42.5193    35.7808   -25.3653 H             1 RES     
    5819 C           42.7001    37.6109   -26.3822 C             1 RES     
    5820 H           41.8603    38.2671   -26.2873 H             1 RES     
    5821 H           42.8957    37.4291   -27.4185 H             1 RES     
    5822 H           43.5593    38.0632   -25.9311 H             1 RES     
    5823 N            5.4772    21.9089     5.0000 N             1 RES     
    5824 C            5.4267    23.3745     5.2163 C             1 RES     
    5825 H            6.2764    23.8917     4.7226 H             1 RES     
    5826 H            5.4911    23.6209     6.3003 H             1 RES     
    5827 H            4.4783    23.8043     4.8234 H             1 RES     
    5828 C            6.7641    21.3776     5.5091 C             1 RES     
    5829 H            6.8385    20.2801     5.3400 H             1 RES     
    5830 H            6.8688    21.5635     6.6018 H             1 RES     
    5831 H            7.6324    21.8670     5.0194 H             1 RES     
    5832 C            4.3765    21.2850     5.7732 C             1 RES     
    5833 H            4.4688    21.5063     6.8606 H             1 RES     
    5834 H            4.3785    20.1780     5.6540 H             1 RES     
    5835 H            3.3845    21.6623     5.4364 H             1 RES     
    5836 C            5.2808    21.5661     3.5586 C             1 RES     
    5837 H            4.2902    21.9361     3.2097 H             1 RES     
    5838 H            5.2784    20.4605     3.4260 H             1 RES     
    5839 C            6.3352    22.1311     2.5960 C             1 RES     
    5840 H            7.3504    21.7313     2.7918 H             1 RES     
    5841 H            6.3405    23.2393     2.5707 H             1 RES     
    5842 P            5.3233    22.8562     0.4318 P             1 RES     
    5843 O            5.1640    22.4747    -1.1139 O             1 RES     
    5844 O            6.2089    21.7452     1.1676 O             1 RES     
    5845 O            6.0801    24.2649     0.4849 O             1 RES     
    5846 O            3.8515    22.8687     1.0592 O             1 RES     
    5847 C            4.3388    23.5249    -1.7631 C             1 RES     
    5848 H            4.8351    24.4902    -1.6628 H             1 RES     
    5849 H            3.3611    23.5668    -1.2830 H             1 RES     
    5850 C            4.9019    21.8789    -3.5797 C             1 RES     
    5851 H            5.9624    21.9945    -3.3557 H             1 RES     
    5852 H            4.4884    21.0711    -2.9759 H             1 RES     
    5853 C            4.1633    23.1909    -3.2561 C             1 RES     
    5854 H            3.1029    23.0754    -3.4801 H             1 RES     
    5855 C            5.9656    22.3200    -5.4006 C             1 RES     
    5856 O            6.6968    22.9200    -4.6142 O             1 RES     
    5857 O            4.7344    21.5601    -5.0049 O             1 RES     
    5858 C            6.1737    22.2403    -6.8131 C             1 RES     
    5859 H            5.3152    22.6650    -7.3334 H             1 RES     
    5860 H            6.2895    21.1941    -7.0959 H             1 RES     
    5861 C            7.4445    23.0198    -7.1991 C             1 RES     
    5862 H            8.3031    22.5951    -6.6788 H             1 RES     
    5863 H            7.3287    24.0661    -6.9162 H             1 RES     
    5864 C            7.6661    22.9211    -8.7199 C             1 RES     
    5865 H            6.8076    23.3457    -9.2402 H             1 RES     
    5866 H            7.7819    21.8748    -9.0027 H             1 RES     
    5867 C            8.9369    23.7005    -9.1059 C             1 RES     
    5868 H            9.7954    23.2758    -8.5856 H             1 RES     
    5869 H            8.8211    24.7468    -8.8231 H             1 RES     
    5870 C            9.1585    23.6018   -10.6267 C             1 RES     
    5871 H            8.2999    24.0265   -11.1470 H             1 RES     
    5872 H            9.2743    22.5555   -10.9096 H             1 RES     
    5873 C           10.4293    24.3812   -11.0127 C             1 RES     
    5874 H           11.2878    23.9566   -10.4924 H             1 RES     
    5875 H           10.3135    25.4275   -10.7299 H             1 RES     
    5876 C           10.6508    24.2825   -12.5335 C             1 RES     
    5877 H            9.7923    24.7072   -13.0538 H             1 RES     
    5878 H           10.7666    23.2362   -12.8164 H             1 RES     
    5879 C           11.9217    25.0620   -12.9196 C             1 RES     
    5880 H           12.7802    24.6373   -12.3993 H             1 RES     
    5881 H           11.8058    26.1082   -12.6367 H             1 RES     
    5882 C           12.1432    24.9632   -14.4403 C             1 RES     
    5883 H           11.2847    25.3879   -14.9606 H             1 RES     
    5884 H           12.2590    23.9170   -14.7232 H             1 RES     
    5885 C           13.4140    25.7427   -14.8264 C             1 RES     
    5886 H           14.2725    25.3180   -14.3061 H             1 RES     
    5887 H           13.2982    26.7890   -14.5435 H             1 RES     
    5888 C           13.6356    25.6440   -16.3472 C             1 RES     
    5889 H           12.7771    26.0686   -16.8675 H             1 RES     
    5890 H           13.7514    24.5977   -16.6300 H             1 RES     
    5891 C           14.9064    26.4234   -16.7332 C             1 RES     
    5892 H           15.7649    25.9987   -16.2129 H             1 RES     
    5893 H           14.7906    27.4697   -16.4503 H             1 RES     
    5894 C           15.1279    26.3247   -18.2540 C             1 RES     
    5895 H           14.2694    26.7494   -18.7743 H             1 RES     
    5896 H           15.2438    25.2784   -18.5368 H             1 RES     
    5897 C           16.3988    27.1041   -18.6400 C             1 RES     
    5898 H           17.2573    26.6795   -18.1197 H             1 RES     
    5899 H           16.2829    28.1504   -18.3572 H             1 RES     
    5900 C           16.6203    27.0054   -20.1608 C             1 RES     
    5901 H           15.7618    27.4301   -20.6811 H             1 RES     
    5902 H           16.7361    25.9591   -20.4437 H             1 RES     
    5903 C           17.8911    27.7849   -20.5468 C             1 RES     
    5904 H           18.7496    27.3602   -20.0265 H             1 RES     
    5905 H           17.7753    28.8311   -20.2640 H             1 RES     
    5906 C           18.1026    27.6906   -21.9985 C             1 RES     
    5907 H           18.6882    26.8065   -21.8558 H             1 RES     
    5908 H           18.5562    28.3017   -22.7508 H             1 RES     
    5909 H           17.1145    27.4182   -22.3080 H             1 RES     
    5910 C            4.2276    23.6269    -5.3250 C             1 RES     
    5911 O            3.6063    22.5684    -5.4051 O             1 RES     
    5912 O            4.7001    24.2396    -4.0400 O             1 RES     
    5913 C            4.5910    24.4485    -6.4375 C             1 RES     
    5914 H            5.6752    24.5538    -6.4751 H             1 RES     
    5915 H            4.1340    25.4308    -6.3171 H             1 RES     
    5916 C            4.0921    23.8075    -7.7459 C             1 RES     
    5917 H            3.0079    23.7023    -7.7082 H             1 RES     
    5918 H            4.5491    22.8253    -7.8662 H             1 RES     
    5919 C            4.4795    24.7030    -8.9374 C             1 RES     
    5920 H            5.5637    24.8083    -8.9750 H             1 RES     
    5921 H            4.0225    25.6852    -8.8170 H             1 RES     
    5922 C            3.9806    24.0620   -10.2457 C             1 RES     
    5923 H            2.8963    23.9567   -10.2081 H             1 RES     
    5924 H            4.4376    23.0798   -10.3661 H             1 RES     
    5925 C            4.3680    24.9575   -11.4372 C             1 RES     
    5926 H            5.4522    25.0628   -11.4749 H             1 RES     
    5927 H            3.9110    25.9397   -11.3169 H             1 RES     
    5928 C            3.8691    24.3165   -12.7456 C             1 RES     
    5929 H            2.7848    24.2112   -12.7079 H             1 RES     
    5930 H            4.3260    23.3342   -12.8660 H             1 RES     
    5931 C            4.2564    25.2119   -13.9371 C             1 RES     
    5932 H            5.3407    25.3172   -13.9747 H             1 RES     
    5933 H            3.7995    26.1942   -13.8167 H             1 RES     
    5934 C            3.7575    24.5709   -15.2454 C             1 RES     
    5935 H            2.6733    24.4657   -15.2078 H             1 RES     
    5936 H            4.2145    23.5887   -15.3658 H             1 RES     
    5937 C            4.1449    25.4664   -16.4369 C             1 RES     
    5938 H            5.2292    25.5717   -16.4746 H             1 RES     
    5939 H            3.6879    26.4486   -16.3166 H             1 RES     
    5940 C            3.6460    24.8254   -17.7453 C             1 RES     
    5941 H            2.5618    24.7201   -17.7077 H             1 RES     
    5942 H            4.1030    23.8432   -17.8657 H             1 RES     
    5943 C            4.0334    25.7209   -18.9368 C             1 RES     
    5944 H            5.1176    25.8262   -18.9745 H             1 RES     
    5945 H            3.5764    26.7031   -18.8164 H             1 RES     
    5946 C            3.5345    25.0799   -20.2452 C             1 RES     
    5947 H            2.4503    24.9746   -20.2075 H             1 RES     
    5948 H            3.9915    24.0976   -20.3655 H             1 RES     
    5949 C            3.9219    25.9753   -21.4367 C             1 RES     
    5950 H            5.0061    26.0806   -21.4743 H             1 RES     
    5951 H            3.4649    26.9576   -21.3163 H             1 RES     
    5952 C            3.4230    25.3343   -22.7450 C             1 RES     
    5953 H            2.3387    25.2291   -22.7074 H             1 RES     
    5954 H            3.8800    24.3521   -22.8654 H             1 RES     
    5955 C            3.8104    26.2298   -23.9365 C             1 RES     
    5956 H            4.8946    26.3351   -23.9742 H             1 RES     
    5957 H            3.3534    27.2120   -23.8162 H             1 RES     
    5958 C            3.3115    25.5888   -25.2449 C             1 RES     
    5959 H            2.2272    25.4835   -25.2073 H             1 RES     
    5960 H            3.7684    24.6066   -25.3653 H             1 RES     
    5961 C            3.6812    26.4436   -26.3822 C             1 RES     
    5962 H            2.7549    26.9707   -26.2873 H             1 RES     
    5963 H            3.9011    26.2921   -27.4185 H             1 RES     
    5964 H            4.4655    27.0159   -25.9311 H             1 RES     
    5965 N           32.8634    49.2950     5.0000 N             1 RES     
    5966 C           33.0936    50.7433     5.2163 C             1 RES     
    5967 H           34.0264    51.0887     4.7226 H             1 RES     
    5968 H           33.2038    50.9729     6.3003 H             1 RES     
    5969 H           32.2447    51.3463     4.8234 H             1 RES     
    5970 C           34.0251    48.5278     5.5091 C             1 RES     
    5971 H           33.8886    47.4363     5.3400 H             1 RES     
    5972 H           34.1634    48.6903     6.6018 H             1 RES     
    5973 H           34.9709    48.8423     5.0194 H             1 RES     
    5974 C           31.6637    48.8928     5.7732 C             1 RES     
    5975 H           31.7966    49.0924     6.8606 H             1 RES     
    5976 H           31.4544    47.8057     5.6540 H             1 RES     
    5977 H           30.7620    49.4525     5.4364 H             1 RES     
    5978 C           32.6050    48.9960     3.5586 C             1 RES     
    5979 H           31.7033    49.5484     3.2097 H             1 RES     
    5980 H           32.3917    47.9112     3.4260 H             1 RES     
    5981 C           33.7480    49.3493     2.5960 C             1 RES     
    5982 H           34.6681    48.7630     2.7918 H             1 RES     
    5983 H           33.9647    50.4361     2.5707 H             1 RES     
    5984 P           32.8931    50.2543     0.4318 P             1 RES     
    5985 O           32.6639    49.9102    -1.1139 O             1 RES     
    5986 O           33.5503    48.9947     1.1676 O             1 RES     
    5987 O           33.9050    51.4926     0.4849 O             1 RES     
    5988 O           31.4508    50.5476     1.0592 O             1 RES     
    5989 C           32.0545    51.0987    -1.7631 C             1 RES     
    5990 H           32.7259    51.9514    -1.6628 H             1 RES     
    5991 H           31.1027    51.3265    -1.2830 H             1 RES     
    5992 C           32.2929    49.3754    -3.5797 C             1 RES     
    5993 H           33.3559    49.2864    -3.3557 H             1 RES     
    5994 H           31.7328    48.6614    -2.9759 H             1 RES     
    5995 C           31.8184    50.8043    -3.2561 C             1 RES     
    5996 H           30.7554    50.8934    -3.4801 H             1 RES     
    5997 C           33.4213    49.6053    -5.4006 C             1 RES     
    5998 O           34.2535    50.0547    -4.6142 O             1 RES     
    5999 O           32.0676    49.0945    -5.0049 O             1 RES     
    6000 C           33.6103    49.4874    -6.8131 C             1 RES     
    6001 H           32.8487    50.0682    -7.3334 H             1 RES     
    6002 H           33.5242    48.4382    -7.0959 H             1 RES     
    6003 C           35.0066    50.0098    -7.1991 C             1 RES     
    6004 H           35.7682    49.4291    -6.6788 H             1 RES     
    6005 H           35.0927    51.0590    -6.9162 H             1 RES     
    6006 C           35.2052    49.8706    -8.7199 C             1 RES     
    6007 H           34.4436    50.4514    -9.2402 H             1 RES     
    6008 H           35.1191    48.8215    -9.0027 H             1 RES     
    6009 C           36.6015    50.3931    -9.1059 C             1 RES     
    6010 H           37.3631    49.8123    -8.5856 H             1 RES     
    6011 H           36.6876    51.4422    -8.8231 H             1 RES     
    6012 C           36.8001    50.2539   -10.6267 C             1 RES     
    6013 H           36.0385    50.8347   -11.1470 H             1 RES     
    6014 H           36.7140    49.2047   -10.9096 H             1 RES     
    6015 C           38.1964    50.7763   -11.0127 C             1 RES     
    6016 H           38.9580    50.1956   -10.4924 H             1 RES     
    6017 H           38.2824    51.8255   -10.7299 H             1 RES     
    6018 C           38.3950    50.6371   -12.5335 C             1 RES     
    6019 H           37.6334    51.2179   -13.0538 H             1 RES     
    6020 H           38.3089    49.5880   -12.8164 H             1 RES     
    6021 C           39.7913    51.1596   -12.9196 C             1 RES     
    6022 H           40.5529    50.5788   -12.3993 H             1 RES     
    6023 H           39.8773    52.2087   -12.6367 H             1 RES     
    6024 C           39.9899    51.0204   -14.4403 C             1 RES     
    6025 H           39.2282    51.6012   -14.9606 H             1 RES     
    6026 H           39.9038    49.9712   -14.7232 H             1 RES     
    6027 C           41.3861    51.5428   -14.8264 C             1 RES     
    6028 H           42.1478    50.9621   -14.3061 H             1 RES     
    6029 H           41.4722    52.5920   -14.5435 H             1 RES     
    6030 C           41.5848    51.4036   -16.3472 C             1 RES     
    6031 H           40.8231    51.9844   -16.8675 H             1 RES     
    6032 H           41.4987    50.3545   -16.6300 H             1 RES     
    6033 C           42.9810    51.9261   -16.7332 C             1 RES     
    6034 H           43.7427    51.3453   -16.2129 H             1 RES     
    6035 H           43.0671    52.9752   -16.4503 H             1 RES     
    6036 C           43.1796    51.7869   -18.2540 C             1 RES     
    6037 H           42.4180    52.3677   -18.7743 H             1 RES     
    6038 H           43.0936    50.7377   -18.5368 H             1 RES     
    6039 C           44.5759    52.3093   -18.6400 C             1 RES     
    6040 H           45.3375    51.7285   -18.1197 H             1 RES     
    6041 H           44.6620    53.3585   -18.3572 H             1 RES     
    6042 C           44.7745    52.1701   -20.1608 C             1 RES     
    6043 H           44.0129    52.7509   -20.6811 H             1 RES     
    6044 H           44.6885    51.1210   -20.4437 H             1 RES     
    6045 C           46.1708    52.6926   -20.5468 C             1 RES     
    6046 H           46.9324    52.1118   -20.0265 H             1 RES     
    6047 H           46.2569    53.7417   -20.2640 H             1 RES     
    6048 C           46.3604    52.5597   -21.9985 C             1 RES     
    6049 H           46.7664    51.5801   -21.8558 H             1 RES     
    6050 H           46.9224    53.0729   -22.7508 H             1 RES     
    6051 H           45.3385    52.4810   -22.3080 H             1 RES     
    6052 C           31.9647    51.2201    -5.3250 C             1 RES     
    6053 O           31.1528    50.2996    -5.4051 O             1 RES     
    6054 O           32.5456    51.7312    -4.0400 O             1 RES     
    6055 C           32.4783    51.9572    -6.4375 C             1 RES     
    6056 H           33.5627    51.8535    -6.4751 H             1 RES     
    6057 H           32.2173    53.0086    -6.3171 H             1 RES     
    6058 C           31.8662    51.4232    -7.7459 C             1 RES     
    6059 H           30.7818    51.5269    -7.7082 H             1 RES     
    6060 H           32.1273    50.3718    -7.8662 H             1 RES     
    6061 C           32.4175    52.2282    -8.9374 C             1 RES     
    6062 H           33.5019    52.1246    -8.9750 H             1 RES     
    6063 H           32.1564    53.2797    -8.8170 H             1 RES     
    6064 C           31.8054    51.6943   -10.2457 C             1 RES     
    6065 H           30.7210    51.7980   -10.2081 H             1 RES     
    6066 H           32.0664    50.6429   -10.3661 H             1 RES     
    6067 C           32.3566    52.4993   -11.4372 C             1 RES     
    6068 H           33.4410    52.3956   -11.4749 H             1 RES     
    6069 H           32.0956    53.5507   -11.3169 H             1 RES     
    6070 C           31.7445    51.9654   -12.7456 C             1 RES     
    6071 H           30.6601    52.0690   -12.7079 H             1 RES     
    6072 H           32.0055    50.9139   -12.8660 H             1 RES     
    6073 C           32.2957    52.7704   -13.9371 C             1 RES     
    6074 H           33.3801    52.6667   -13.9747 H             1 RES     
    6075 H           32.0347    53.8218   -13.8167 H             1 RES     
    6076 C           31.6836    52.2364   -15.2454 C             1 RES     
    6077 H           30.5992    52.3401   -15.2078 H             1 RES     
    6078 H           31.9446    51.1850   -15.3658 H             1 RES     
    6079 C           32.2348    53.0415   -16.4369 C             1 RES     
    6080 H           33.3192    52.9378   -16.4746 H             1 RES     
    6081 H           31.9738    54.0929   -16.3166 H             1 RES     
    6082 C           31.6227    52.5075   -17.7453 C             1 RES     
    6083 H           30.5383    52.6112   -17.7077 H             1 RES     
    6084 H           31.8837    51.4561   -17.8657 H             1 RES     
    6085 C           32.1739    53.3126   -18.9368 C             1 RES     
    6086 H           33.2583    53.2089   -18.9745 H             1 RES     
    6087 H           31.9129    54.3640   -18.8164 H             1 RES     
    6088 C           31.5618    52.7786   -20.2452 C             1 RES     
    6089 H           30.4774    52.8823   -20.2075 H             1 RES     
    6090 H           31.8229    51.7272   -20.3655 H             1 RES     
    6091 C           32.1131    53.5836   -21.4367 C             1 RES     
    6092 H           33.1975    53.4799   -21.4743 H             1 RES     
    6093 H           31.8520    54.6351   -21.3163 H             1 RES     
    6094 C           31.5010    53.0497   -22.7450 C             1 RES     
    6095 H           30.4166    53.1534   -22.7074 H             1 RES     
    6096 H           31.7620    51.9983   -22.8654 H             1 RES     
    6097 C           32.0522    53.8547   -23.9365 C             1 RES     
    6098 H           33.1366    53.7510   -23.9742 H             1 RES     
    6099 H           31.7912    54.9061   -23.8162 H             1 RES     
    6100 C           31.4401    53.3208   -25.2449 C             1 RES     
    6101 H           30.3557    53.4244   -25.2073 H             1 RES     
    6102 H           31.7011    52.2693   -25.3653 H             1 RES     
    6103 C           31.9662    54.0892   -26.3822 C             1 RES     
    6104 H           31.1576    54.7835   -26.2873 H             1 RES     
    6105 H           32.1532    53.8985   -27.4185 H             1 RES     
    6106 H           32.8454    54.5013   -25.9311 H             1 RES     
    6107 N           27.3861     5.4772     5.0000 N             1 RES     
    6108 C           27.8088     6.8815     5.2163 C             1 RES     
    6109 H           28.7795     7.0985     4.7226 H             1 RES     
    6110 H           27.9488     7.0942     6.3003 H             1 RES     
    6111 H           27.0485     7.5930     4.8234 H             1 RES     
    6112 C           28.4343     4.5609     5.5091 C             1 RES     
    6113 H           28.1525     3.4976     5.3400 H             1 RES     
    6114 H           28.5932     4.7034     6.6018 H             1 RES     
    6115 H           29.4138     4.7456     5.0194 H             1 RES     
    6116 C           26.1433     5.2398     5.7732 C             1 RES     
    6117 H           26.3018     5.4197     6.8606 H             1 RES     
    6118 H           25.7899     4.1906     5.6540 H             1 RES     
    6119 H           25.3250     5.9155     5.4364 H             1 RES     
    6120 C           27.0900     5.2156     3.5586 C             1 RES     
    6121 H           26.2706     5.8840     3.2097 H             1 RES     
    6122 H           26.7329     4.1693     3.4260 H             1 RES     
    6123 C           28.2700     5.4122     2.5960 C             1 RES     
    6124 H           29.1031     4.7077     2.7918 H             1 RES     
    6125 H           28.6308     6.4601     2.5707 H             1 RES     
    6126 P           27.5445     6.4238     0.4318 P             1 RES     
    6127 O           27.2711     6.1136    -1.1139 O             1 RES     
    6128 O           28.0265     5.0873     1.1676 O             1 RES     
    6129 O           28.7134     7.5150     0.4849 O             1 RES     
    6130 O           26.1546     6.9082     1.0592 O             1 RES     
    6131 C           26.8268     7.3731    -1.7631 C             1 RES     
    6132 H           27.6066     8.1280    -1.6628 H             1 RES     
    6133 H           25.9143     7.7267    -1.2830 H             1 RES     
    6134 C           26.8316     5.6335    -3.5797 C             1 RES     
    6135 H           27.8731     5.4025    -3.3557 H             1 RES     
    6136 H           26.1807     5.0012    -2.9759 H             1 RES     
    6137 C           26.5534     7.1132    -3.2561 C             1 RES     
    6138 H           25.5119     7.3442    -3.4801 H             1 RES     
    6139 C           27.9807     5.7098    -5.4006 C             1 RES     
    6140 O           28.8657     6.0433    -4.6142 O             1 RES     
    6141 O           26.5706     5.3854    -5.0049 O             1 RES     
    6142 C           28.1522     5.5675    -6.8131 C             1 RES     
    6143 H           27.4754     6.2453    -7.3334 H             1 RES     
    6144 H           27.9260     4.5394    -7.0959 H             1 RES     
    6145 C           29.6059     5.8977    -7.1991 C             1 RES     
    6146 H           30.2827     5.2199    -6.6788 H             1 RES     
    6147 H           29.8321     6.9258    -6.9162 H             1 RES     
    6148 C           29.7841     5.7331    -8.7199 C             1 RES     
    6149 H           29.1073     6.4109    -9.2402 H             1 RES     
    6150 H           29.5579     4.7050    -9.0027 H             1 RES     
    6151 C           31.2379     6.0633    -9.1059 C             1 RES     
    6152 H           31.9146     5.3855    -8.5856 H             1 RES     
    6153 H           31.4640     7.0914    -8.8231 H             1 RES     
    6154 C           31.4160     5.8987   -10.6267 C             1 RES     
    6155 H           30.7392     6.5765   -11.1470 H             1 RES     
    6156 H           31.1898     4.8706   -10.9096 H             1 RES     
    6157 C           32.8698     6.2289   -11.0127 C             1 RES     
    6158 H           33.5465     5.5511   -10.4924 H             1 RES     
    6159 H           33.0960     7.2570   -10.7299 H             1 RES     
    6160 C           33.0479     6.0643   -12.5335 C             1 RES     
    6161 H           32.3712     6.7421   -13.0538 H             1 RES     
    6162 H           32.8217     5.0362   -12.8164 H             1 RES     
    6163 C           34.5017     6.3945   -12.9196 C             1 RES     
    6164 H           35.1784     5.7167   -12.3993 H             1 RES     
    6165 H           34.7279     7.4226   -12.6367 H             1 RES     
    6166 C           34.6798     6.2299   -14.4403 C             1 RES     
    6167 H           34.0031     6.9077   -14.9606 H             1 RES     
    6168 H           34.4536     5.2018   -14.7232 H             1 RES     
    6169 C           36.1336     6.5601   -14.8264 C             1 RES     
    6170 H           36.8103     5.8823   -14.3061 H             1 RES     
    6171 H           36.3598     7.5882   -14.5435 H             1 RES     
    6172 C           36.3117     6.3955   -16.3472 C             1 RES     
    6173 H           35.6350     7.0733   -16.8675 H             1 RES     
    6174 H           36.0855     5.3674   -16.6300 H             1 RES     
    6175 C           37.7655     6.7257   -16.7332 C             1 RES     
    6176 H           38.4422     6.0479   -16.2129 H             1 RES     
    6177 H           37.9917     7.7538   -16.4503 H             1 RES     
    6178 C           37.9436     6.5611   -18.2540 C             1 RES     
    6179 H           37.2669     7.2389   -18.7743 H             1 RES     
    6180 H           37.7174     5.5330   -18.5368 H             1 RES     
    6181 C           39.3974     6.8913   -18.6400 C             1 RES     
    6182 H           40.0741     6.2135   -18.1197 H             1 RES     
    6183 H           39.6236     7.9194   -18.3572 H             1 RES     
    6184 C           39.5755     6.7267   -20.1608 C             1 RES     
    6185 H           38.8988     7.4045   -20.6811 H             1 RES     
    6186 H           39.3493     5.6986   -20.4437 H             1 RES     
    6187 C           41.0293     7.0569   -20.5468 C             1 RES     
    6188 H           41.7060     6.3791   -20.0265 H             1 RES     
    6189 H           41.2555     8.0850   -20.2640 H             1 RES     
    6190 C           41.1993     6.8998   -21.9985 C             1 RES     
    6191 H           41.4701     5.8745   -21.8558 H             1 RES     
    6192 H           41.8251     7.3329   -22.7508 H             1 RES     
    6193 H           40.1761     6.9590   -22.3080 H             1 RES     
    6194 C           26.7542     7.5055    -5.3250 C             1 RES     
    6195 O           25.8260     6.7024    -5.4051 O             1 RES     
    6196 O           27.3984     7.9341    -4.0400 O             1 RES     
    6197 C           27.3621     8.1669    -6.4375 C             1 RES     
    6198 H           28.4228     7.9186    -6.4751 H             1 RES     
    6199 H           27.2447     9.2439    -6.3171 H             1 RES     
    6200 C           26.6838     7.7200    -7.7459 C             1 RES     
    6201 H           25.6232     7.9684    -7.7082 H             1 RES     
    6202 H           26.8013     6.6431    -7.8662 H             1 RES     
    6203 C           27.3382     8.4437    -8.9374 C             1 RES     
    6204 H           28.3988     8.1954    -8.9750 H             1 RES     
    6205 H           27.2207     9.5207    -8.8170 H             1 RES     
    6206 C           26.6599     7.9968   -10.2457 C             1 RES     
    6207 H           25.5993     8.2452   -10.2081 H             1 RES     
    6208 H           26.7774     6.9199   -10.3661 H             1 RES     
    6209 C           27.3143     8.7205   -11.4372 C             1 RES     
    6210 H           28.3749     8.4722   -11.4749 H             1 RES     
    6211 H           27.1968     9.7975   -11.3169 H             1 RES     
    6212 C           26.6360     8.2736   -12.7456 C             1 RES     
    6213 H           25.5753     8.5220   -12.7079 H             1 RES     
    6214 H           26.7535     7.1967   -12.8660 H             1 RES     
    6215 C           27.2903     8.9973   -13.9371 C             1 RES     
    6216 H           28.3510     8.7490   -13.9747 H             1 RES     
    6217 H           27.1729    10.0743   -13.8167 H             1 RES     
    6218 C           26.6121     8.5504   -15.2454 C             1 RES     
    6219 H           25.5514     8.7988   -15.2078 H             1 RES     
    6220 H           26.7295     7.4735   -15.3658 H             1 RES     
    6221 C           27.2664     9.2741   -16.4369 C             1 RES     
    6222 H           28.3271     9.0258   -16.4746 H             1 RES     
    6223 H           27.1490    10.3511   -16.3166 H             1 RES     
    6224 C           26.5881     8.8272   -17.7453 C             1 RES     
    6225 H           25.5275     9.0756   -17.7077 H             1 RES     
    6226 H           26.7056     7.7503   -17.8657 H             1 RES     
    6227 C           27.2425     9.5509   -18.9368 C             1 RES     
    6228 H           28.3031     9.3026   -18.9745 H             1 RES     
    6229 H           27.1250    10.6279   -18.8164 H             1 RES     
    6230 C           26.5642     9.1040   -20.2452 C             1 RES     
    6231 H           25.5036     9.3524   -20.2075 H             1 RES     
    6232 H           26.6817     8.0271   -20.3655 H             1 RES     
    6233 C           27.2186     9.8277   -21.4367 C             1 RES     
    6234 H           28.2792     9.5794   -21.4743 H             1 RES     
    6235 H           27.1011    10.9047   -21.3163 H             1 RES     
    6236 C           26.5403     9.3808   -22.7450 C             1 RES     
    6237 H           25.4796     9.6292   -22.7074 H             1 RES     
    6238 H           26.6577     8.3039   -22.8654 H             1 RES     
    6239 C           27.1946    10.1045   -23.9365 C             1 RES     
    6240 H           28.2553     9.8562   -23.9742 H             1 RES     
    6241 H           27.0772    11.1815   -23.8162 H             1 RES     
    6242 C           26.5164     9.6576   -25.2449 C             1 RES     
    6243 H           25.4557     9.9060   -25.2073 H             1 RES     
    6244 H           26.6338     8.5807   -25.3653 H             1 RES     
    6245 C           27.1410    10.3484   -26.3822 C             1 RES     
    6246 H           26.4329    11.1450   -26.2873 H             1 RES     
    6247 H           27.3006    10.1344   -27.4185 H             1 RES     
    6248 H           28.0675    10.6387   -25.9311 H             1 RES     
    6249 N           16.4317    32.8634     5.0000 N             1 RES     
    6250 C           16.5587    34.3243     5.2163 C             1 RES     
    6251 H           17.4646    34.7350     4.7226 H             1 RES     
    6252 H           16.6523    34.5612     6.3003 H             1 RES     
    6253 H           15.6691    34.8656     4.8234 H             1 RES     
    6254 C           17.6449    32.1804     5.5091 C             1 RES     
    6255 H           17.5861    31.0820     5.3400 H             1 RES     
    6256 H           17.7714    32.3523     6.6018 H             1 RES     
    6257 H           18.5660    32.5613     5.0194 H             1 RES     
    6258 C           15.2636    32.3771     5.7732 C             1 RES     
    6259 H           15.3820    32.5856     6.8606 H             1 RES     
    6260 H           15.1318    31.2779     5.6540 H             1 RES     
    6261 H           14.3245    32.8714     5.4364 H             1 RES     
    6262 C           16.1952    32.5468     3.5586 C             1 RES     
    6263 H           15.2566    33.0338     3.2097 H             1 RES     
    6264 H           16.0593    31.4496     3.4260 H             1 RES     
    6265 C           17.3102    32.9802     2.5960 C             1 RES     
    6266 H           18.2696    32.4607     2.7918 H             1 RES     
    6267 H           17.4494    34.0797     2.5707 H             1 RES     
    6268 P           16.3934    33.8223     0.4318 P             1 RES     
    6269 O           16.1891    33.4629    -1.1139 O             1 RES     
    6270 O           17.1382    32.6124     1.1676 O             1 RES     
    6271 O           17.3149    35.1292     0.4849 O             1 RES     
    6272 O           14.9338    34.0126     1.0592 O             1 RES     
    6273 C           15.4969    34.6051    -1.7631 C             1 RES     
    6274 H           16.1062    35.5033    -1.6628 H             1 RES     
    6275 H           14.5315    34.7648    -1.2830 H             1 RES     
    6276 C           15.8569    32.9031    -3.5797 C             1 RES     
    6277 H           16.9236    32.8896    -3.3557 H             1 RES     
    6278 H           15.3489    32.1512    -2.9759 H             1 RES     
    6279 C           15.2824    34.2948    -3.2561 C             1 RES     
    6280 H           14.2157    34.3082    -3.4801 H             1 RES     
    6281 C           16.9662    33.2125    -5.4006 C             1 RES     
    6282 O           17.7645    33.7197    -4.6142 O             1 RES     
    6283 O           15.6521    32.6069    -5.0049 O             1 RES     
    6284 C           17.1631    33.1082    -6.8131 C             1 RES     
    6285 H           16.3622    33.6335    -7.3334 H             1 RES     
    6286 H           17.1516    32.0556    -7.0959 H             1 RES     
    6287 C           18.5188    33.7283    -7.1991 C             1 RES     
    6288 H           19.3197    33.2030    -6.6788 H             1 RES     
    6289 H           18.5303    34.7809    -6.9162 H             1 RES     
    6290 C           18.7268    33.6036    -8.7199 C             1 RES     
    6291 H           17.9259    34.1289    -9.2402 H             1 RES     
    6292 H           18.7153    32.5510    -9.0027 H             1 RES     
    6293 C           20.0825    34.2237    -9.1059 C             1 RES     
    6294 H           20.8834    33.6984    -8.5856 H             1 RES     
    6295 H           20.0940    35.2763    -8.8231 H             1 RES     
    6296 C           20.2905    34.0989   -10.6267 C             1 RES     
    6297 H           19.4896    34.6243   -11.1470 H             1 RES     
    6298 H           20.2790    33.0463   -10.9096 H             1 RES     
    6299 C           21.6462    34.7191   -11.0127 C             1 RES     
    6300 H           22.4471    34.1938   -10.4924 H             1 RES     
    6301 H           21.6577    35.7717   -10.7299 H             1 RES     
    6302 C           21.8542    34.5943   -12.5335 C             1 RES     
    6303 H           21.0533    35.1196   -13.0538 H             1 RES     
    6304 H           21.8427    33.5417   -12.8164 H             1 RES     
    6305 C           23.2099    35.2145   -12.9196 C             1 RES     
    6306 H           24.0108    34.6891   -12.3993 H             1 RES     
    6307 H           23.2214    36.2671   -12.6367 H             1 RES     
    6308 C           23.4179    35.0897   -14.4403 C             1 RES     
    6309 H           22.6170    35.6150   -14.9606 H             1 RES     
    6310 H           23.4064    34.0371   -14.7232 H             1 RES     
    6311 C           24.7736    35.7098   -14.8264 C             1 RES     
    6312 H           25.5745    35.1845   -14.3061 H             1 RES     
    6313 H           24.7851    36.7624   -14.5435 H             1 RES     
    6314 C           24.9816    35.5851   -16.3472 C             1 RES     
    6315 H           24.1807    36.1104   -16.8675 H             1 RES     
    6316 H           24.9701    34.5325   -16.6300 H             1 RES     
    6317 C           26.3373    36.2052   -16.7332 C             1 RES     
    6318 H           27.1382    35.6799   -16.2129 H             1 RES     
    6319 H           26.3488    37.2578   -16.4503 H             1 RES     
    6320 C           26.5453    36.0804   -18.2540 C             1 RES     
    6321 H           25.7444    36.6058   -18.7743 H             1 RES     
    6322 H           26.5338    35.0278   -18.5368 H             1 RES     
    6323 C           27.9010    36.7006   -18.6400 C             1 RES     
    6324 H           28.7019    36.1753   -18.1197 H             1 RES     
    6325 H           27.9125    37.7532   -18.3572 H             1 RES     
    6326 C           28.1090    36.5758   -20.1608 C             1 RES     
    6327 H           27.3081    37.1011   -20.6811 H             1 RES     
    6328 H           28.0975    35.5232   -20.4437 H             1 RES     
    6329 C           29.4647    37.1960   -20.5468 C             1 RES     
    6330 H           30.2656    36.6706   -20.0265 H             1 RES     
    6331 H           29.4762    38.2486   -20.2640 H             1 RES     
    6332 C           29.6632    37.0769   -21.9985 C             1 RES     
    6333 H           30.1377    36.1285   -21.8558 H             1 RES     
    6334 H           30.1874    37.6287   -22.7508 H             1 RES     
    6335 H           28.6495    36.9259   -22.3080 H             1 RES     
    6336 C           15.3988    34.7198    -5.3250 C             1 RES     
    6337 O           14.6542    33.7441    -5.4051 O             1 RES     
    6338 O           15.9419    35.2709    -4.0400 O             1 RES     
    6339 C           15.8589    35.4915    -6.4375 C             1 RES     
    6340 H           16.9479    35.4650    -6.4751 H             1 RES     
    6341 H           15.5240    36.5218    -6.3171 H             1 RES     
    6342 C           15.2862    34.9155    -7.7459 C             1 RES     
    6343 H           14.1971    34.9420    -7.7082 H             1 RES     
    6344 H           15.6211    33.8852    -7.8662 H             1 RES     
    6345 C           15.7789    35.7576    -8.9374 C             1 RES     
    6346 H           16.8679    35.7310    -8.9750 H             1 RES     
    6347 H           15.4440    36.7878    -8.8170 H             1 RES     
    6348 C           15.2062    35.1815   -10.2457 C             1 RES     
    6349 H           14.1172    35.2081   -10.2081 H             1 RES     
    6350 H           15.5411    34.1513   -10.3661 H             1 RES     
    6351 C           15.6990    36.0236   -11.4372 C             1 RES     
    6352 H           16.7880    35.9971   -11.4749 H             1 RES     
    6353 H           15.3641    37.0539   -11.3169 H             1 RES     
    6354 C           15.1263    35.4476   -12.7456 C             1 RES     
    6355 H           14.0372    35.4742   -12.7079 H             1 RES     
    6356 H           15.4612    34.4174   -12.8660 H             1 RES     
    6357 C           15.6190    36.2897   -13.9371 C             1 RES     
    6358 H           16.7080    36.2632   -13.9747 H             1 RES     
    6359 H           15.2841    37.3200   -13.8167 H             1 RES     
    6360 C           15.0463    35.7137   -15.2454 C             1 RES     
    6361 H           13.9573    35.7402   -15.2078 H             1 RES     
    6362 H           15.3812    34.6834   -15.3658 H             1 RES     
    6363 C           15.5391    36.5558   -16.4369 C             1 RES     
    6364 H           16.6281    36.5293   -16.4746 H             1 RES     
    6365 H           15.2042    37.5861   -16.3166 H             1 RES     
    6366 C           14.9664    35.9798   -17.7453 C             1 RES     
    6367 H           13.8773    36.0063   -17.7077 H             1 RES     
    6368 H           15.3013    34.9495   -17.8657 H             1 RES     
    6369 C           15.4591    36.8219   -18.9368 C             1 RES     
    6370 H           16.5481    36.7953   -18.9745 H             1 RES     
    6371 H           15.1242    37.8521   -18.8164 H             1 RES     
    6372 C           14.8864    36.2459   -20.2452 C             1 RES     
    6373 H           13.7974    36.2724   -20.2075 H             1 RES     
    6374 H           15.2213    35.2156   -20.3655 H             1 RES     
    6375 C           15.3792    37.0880   -21.4367 C             1 RES     
    6376 H           16.4682    37.0614   -21.4743 H             1 RES     
    6377 H           15.0443    38.1182   -21.3163 H             1 RES     
    6378 C           14.8065    36.5119   -22.7450 C             1 RES     
    6379 H           13.7174    36.5385   -22.7074 H             1 RES     
    6380 H           15.1414    35.4817   -22.8654 H             1 RES     
    6381 C           15.2992    37.3540   -23.9365 C             1 RES     
    6382 H           16.3882    37.3275   -23.9742 H             1 RES     
    6383 H           14.9643    38.3843   -23.8162 H             1 RES     
    6384 C           14.7265    36.7780   -25.2449 C             1 RES     
    6385 H           13.6375    36.8046   -25.2073 H             1 RES     
    6386 H           15.0614    35.7478   -25.3653 H             1 RES     
    6387 C           15.1969    37.5818   -26.3822 C             1 RES     
    6388 H           14.3410    38.2170   -26.2873 H             1 RES     
    6389 H           15.3969    37.4049   -27.4185 H             1 RES     
    6390 H           16.0446    38.0552   -25.9311 H             1 RES     
    6391 N           38.3406    27.3861     5.0000 N             1 RES     
    6392 C           38.6687    28.8154     5.2163 C             1 RES     
    6393 H           39.6228    29.0966     4.7226 H             1 RES     
    6394 H           38.7943    29.0370     6.3003 H             1 RES     
    6395 H           37.8628    29.4747     4.8234 H             1 RES     
    6396 C           39.4475    26.5417     5.5091 C             1 RES     
    6397 H           39.2371    25.4620     5.3400 H             1 RES     
    6398 H           39.5965    26.6944     6.6018 H             1 RES     
    6399 H           40.4125    26.7913     5.0194 H             1 RES     
    6400 C           37.1164    27.0664     5.7732 C             1 RES     
    6401 H           37.2625    27.2565     6.8606 H             1 RES     
    6402 H           36.8336    25.9960     5.6540 H             1 RES     
    6403 H           36.2548    27.6861     5.4364 H             1 RES     
    6404 C           38.0625    27.1054     3.5586 C             1 RES     
    6405 H           37.2004    27.7177     3.2097 H             1 RES     
    6406 H           37.7759    26.0375     3.4260 H             1 RES     
    6407 C           39.2268    27.3801     2.5960 C             1 RES     
    6408 H           40.1050    26.7327     2.7918 H             1 RES     
    6409 H           39.5170    28.4497     2.5707 H             1 RES     
    6410 P           38.4355    28.3412     0.4318 P             1 RES     
    6411 O           38.1834    28.0135    -1.1139 O             1 RES     
    6412 O           39.0055    27.0398     1.1676 O             1 RES     
    6413 O           39.5292    29.5078     0.4849 O             1 RES     
    6414 O           37.0164    28.7318     1.0592 O             1 RES     
    6415 C           37.6561    29.2406    -1.7631 C             1 RES     
    6416 H           38.3840    30.0457    -1.6628 H             1 RES     
    6417 H           36.7221    29.5325    -1.2830 H             1 RES     
    6418 C           37.7769    27.5051    -3.5797 C             1 RES     
    6419 H           38.8314    27.3440    -3.3557 H             1 RES     
    6420 H           37.1695    26.8308    -2.9759 H             1 RES     
    6421 C           37.4006    28.9630    -3.2561 C             1 RES     
    6422 H           36.3461    29.1241    -3.4801 H             1 RES     
    6423 C           38.9183    27.6578    -5.4006 C             1 RES     
    6424 O           39.7792    28.0495    -4.6142 O             1 RES     
    6425 O           37.5330    27.2402    -5.0049 O             1 RES     
    6426 C           39.0989    27.5273    -6.8131 C             1 RES     
    6427 H           38.3785    28.1585    -7.3334 H             1 RES     
    6428 H           38.9417    26.4864    -7.0959 H             1 RES     
    6429 C           40.5274    27.9536    -7.1991 C             1 RES     
    6430 H           41.2478    27.3224    -6.6788 H             1 RES     
    6431 H           40.6846    28.9945    -6.9162 H             1 RES     
    6432 C           40.7161    27.8012    -8.7199 C             1 RES     
    6433 H           39.9957    28.4324    -9.2402 H             1 RES     
    6434 H           40.5590    26.7604    -9.0027 H             1 RES     
    6435 C           42.1447    28.2276    -9.1059 C             1 RES     
    6436 H           42.8651    27.5964    -8.5856 H             1 RES     
    6437 H           42.3019    29.2685    -8.8231 H             1 RES     
    6438 C           42.3334    28.0752   -10.6267 C             1 RES     
    6439 H           41.6130    28.7064   -11.1470 H             1 RES     
    6440 H           42.1762    27.0343   -10.9096 H             1 RES     
    6441 C           43.7619    28.5016   -11.0127 C             1 RES     
    6442 H           44.4823    27.8704   -10.4924 H             1 RES     
    6443 H           43.9191    29.5424   -10.7299 H             1 RES     
    6444 C           43.9506    28.3492   -12.5335 C             1 RES     
    6445 H           43.2302    28.9804   -13.0538 H             1 RES     
    6446 H           43.7934    27.3083   -12.8164 H             1 RES     
    6447 C           45.3792    28.7755   -12.9196 C             1 RES     
    6448 H           46.0996    28.1443   -12.3993 H             1 RES     
    6449 H           45.5364    29.8164   -12.6367 H             1 RES     
    6450 C           45.5679    28.6231   -14.4403 C             1 RES     
    6451 H           44.8475    29.2544   -14.9606 H             1 RES     
    6452 H           45.4107    27.5823   -14.7232 H             1 RES     
    6453 C           46.9964    29.0495   -14.8264 C             1 RES     
    6454 H           47.7168    28.4183   -14.3061 H             1 RES     
    6455 H           47.1536    30.0904   -14.5435 H             1 RES     
    6456 C           47.1851    28.8971   -16.3472 C             1 RES     
    6457 H           46.4647    29.5283   -16.8675 H             1 RES     
    6458 H           47.0279    27.8563   -16.6300 H             1 RES     
    6459 C           48.6137    29.3235   -16.7332 C             1 RES     
    6460 H           49.3341    28.6923   -16.2129 H             1 RES     
    6461 H           48.7709    30.3643   -16.4503 H             1 RES     
    6462 C           48.8024    29.1711   -18.2540 C             1 RES     
    6463 H           48.0820    29.8023   -18.7743 H             1 RES     
    6464 H           48.6452    28.1302   -18.5368 H             1 RES     
    6465 C           50.2309    29.5974   -18.6400 C             1 RES     
    6466 H           50.9513    28.9662   -18.1197 H             1 RES     
    6467 H           50.3881    30.6383   -18.3572 H             1 RES     
    6468 C           50.4196    29.4450   -20.1608 C             1 RES     
    6469 H           49.6992    30.0763   -20.6811 H             1 RES     
    6470 H           50.2624    28.4042   -20.4437 H             1 RES     
    6471 C           51.8482    29.8714   -20.5468 C             1 RES     
    6472 H           52.5686    29.2402   -20.0265 H             1 RES     
    6473 H           52.0054    30.9123   -20.2640 H             1 RES     
    6474 C           52.0283    29.7259   -21.9985 C             1 RES     
    6475 H           52.3668    28.7210   -21.8558 H             1 RES     
    6476 H           52.6238    30.1998   -22.7508 H             1 RES     
    6477 H           51.0034    29.7169   -22.3080 H             1 RES     
    6478 C           37.5749    29.3678    -5.3250 C             1 RES     
    6479 O           36.7023    28.5047    -5.4051 O             1 RES     
    6480 O           38.1891    29.8383    -4.0400 O             1 RES     
    6481 C           38.1374    30.0683    -6.4375 C             1 RES     
    6482 H           39.2122    29.8911    -6.4751 H             1 RES     
    6483 H           37.9484    31.1350    -6.3171 H             1 RES     
    6484 C           37.4904    29.5771    -7.7459 C             1 RES     
    6485 H           36.4156    29.7543    -7.7082 H             1 RES     
    6486 H           37.6794    28.5104    -7.8662 H             1 RES     
    6487 C           38.0951    30.3429    -8.9374 C             1 RES     
    6488 H           39.1699    30.1657    -8.9750 H             1 RES     
    6489 H           37.9061    31.4096    -8.8170 H             1 RES     
    6490 C           37.4481    29.8517   -10.2457 C             1 RES     
    6491 H           36.3732    30.0289   -10.2081 H             1 RES     
    6492 H           37.6370    28.7850   -10.3661 H             1 RES     
    6493 C           38.0528    30.6175   -11.4372 C             1 RES     
    6494 H           39.1276    30.4403   -11.4749 H             1 RES     
    6495 H           37.8638    31.6842   -11.3169 H             1 RES     
    6496 C           37.4058    30.1263   -12.7456 C             1 RES     
    6497 H           36.3309    30.3035   -12.7079 H             1 RES     
    6498 H           37.5947    29.0596   -12.8660 H             1 RES     
    6499 C           38.0104    30.8920   -13.9371 C             1 RES     
    6500 H           39.0853    30.7149   -13.9747 H             1 RES     
    6501 H           37.8215    31.9588   -13.8167 H             1 RES     
    6502 C           37.3635    30.4009   -15.2454 C             1 RES     
    6503 H           36.2886    30.5781   -15.2078 H             1 RES     
    6504 H           37.5524    29.3342   -15.3658 H             1 RES     
    6505 C           37.9681    31.1666   -16.4369 C             1 RES     
    6506 H           39.0430    30.9895   -16.4746 H             1 RES     
    6507 H           37.7792    32.2334   -16.3166 H             1 RES     
    6508 C           37.3211    30.6755   -17.7453 C             1 RES     
    6509 H           36.2463    30.8526   -17.7077 H             1 RES     
    6510 H           37.5101    29.6088   -17.8657 H             1 RES     
    6511 C           37.9258    31.4412   -18.9368 C             1 RES     
    6512 H           39.0007    31.2641   -18.9745 H             1 RES     
    6513 H           37.7368    32.5079   -18.8164 H             1 RES     
    6514 C           37.2788    30.9501   -20.2452 C             1 RES     
    6515 H           36.2040    31.1272   -20.2075 H             1 RES     
    6516 H           37.4678    29.8834   -20.3655 H             1 RES     
    6517 C           37.8835    31.7158   -21.4367 C             1 RES     
    6518 H           38.9583    31.5387   -21.4743 H             1 RES     
    6519 H           37.6945    32.7825   -21.3163 H             1 RES     
    6520 C           37.2365    31.2247   -22.7450 C             1 RES     
    6521 H           36.1617    31.4018   -22.7074 H             1 RES     
    6522 H           37.4255    30.1580   -22.8654 H             1 RES     
    6523 C           37.8412    31.9904   -23.9365 C             1 RES     
    6524 H           38.9160    31.8133   -23.9742 H             1 RES     
    6525 H           37.6522    33.0571   -23.8162 H             1 RES     
    6526 C           37.1942    31.4993   -25.2449 C             1 RES     
    6527 H           36.1193    31.6764   -25.2073 H             1 RES     
    6528 H           37.3831    30.4325   -25.3653 H             1 RES     
    6529 C           37.7714    32.2302   -26.3822 C             1 RES     
    6530 H           37.0118    32.9778   -26.2873 H             1 RES     
    6531 H           37.9449    32.0272   -27.4185 H             1 RES     
    6532 H           38.6765    32.5815   -25.9311 H             1 RES     
    6533 N           49.2950    49.2950     5.0000 N             1 RES     
    6534 C           49.2987    50.7615     5.2163 C             1 RES     
    6535 H           50.1669    51.2469     4.7226 H             1 RES     
    6536 H           49.3721    51.0054     6.3003 H             1 RES     
    6537 H           48.3668    51.2260     4.8234 H             1 RES     
    6538 C           50.5614    48.7165     5.5091 C             1 RES     
    6539 H           50.5952    47.6171     5.3400 H             1 RES     
    6540 H           50.6729    48.8985     6.6018 H             1 RES     
    6541 H           51.4472    49.1735     5.0194 H             1 RES     
    6542 C           48.1720    48.7123     5.7732 C             1 RES     
    6543 H           48.2724    48.9300     6.8606 H             1 RES     
    6544 H           48.1331    47.6059     5.6540 H             1 RES     
    6545 H           47.1946    49.1259     5.4364 H             1 RES     
    6546 C           49.0860    48.9597     3.5586 C             1 RES     
    6547 H           48.1098    49.3660     3.2097 H             1 RES     
    6548 H           49.0429    47.8549     3.4260 H             1 RES     
    6549 C           50.1606    49.4854     2.5960 C             1 RES     
    6550 H           51.1603    49.0483     2.7918 H             1 RES     
    6551 H           50.2068    50.5926     2.5707 H             1 RES     
    6552 P           49.1762    50.2474     0.4318 P             1 RES     
    6553 O           49.0029    49.8720    -1.1139 O             1 RES     
    6554 O           50.0201    49.1044     1.1676 O             1 RES     
    6555 O           49.9845    51.6271     0.4849 O             1 RES     
    6556 O           47.7058    50.3143     1.0592 O             1 RES     
    6557 C           48.2171    50.9520    -1.7631 C             1 RES     
    6558 H           48.7487    51.8983    -1.6628 H             1 RES     
    6559 H           47.2416    51.0300    -1.2830 H             1 RES     
    6560 C           48.7190    49.2863    -3.5797 C             1 RES     
    6561 H           49.7830    49.3626    -3.3557 H             1 RES     
    6562 H           48.2759    48.4943    -2.9759 H             1 RES     
    6563 C           48.0294    50.6247    -3.2561 C             1 RES     
    6564 H           46.9654    50.5484    -3.4801 H             1 RES     
    6565 C           49.7983    49.6878    -5.4006 C             1 RES     
    6566 O           50.5511    50.2604    -4.6142 O             1 RES     
    6567 O           48.5398    48.9739    -5.0049 O             1 RES     
    6568 C           50.0033    49.6005    -6.8131 C             1 RES     
    6569 H           49.1611    50.0566    -7.3334 H             1 RES     
    6570 H           50.0804    48.5507    -7.0959 H             1 RES     
    6571 C           51.3020    50.3325    -7.1991 C             1 RES     
    6572 H           52.1443    49.8764    -6.6788 H             1 RES     
    6573 H           51.2250    51.3823    -6.9162 H             1 RES     
    6574 C           51.5198    50.2256    -8.7199 C             1 RES     
    6575 H           50.6776    50.6817    -9.2402 H             1 RES     
    6576 H           51.5969    49.1758    -9.0027 H             1 RES     
    6577 C           52.8185    50.9576    -9.1059 C             1 RES     
    6578 H           53.6608    50.5015    -8.5856 H             1 RES     
    6579 H           52.7415    52.0074    -8.8231 H             1 RES     
    6580 C           53.0363    50.8508   -10.6267 C             1 RES     
    6581 H           52.1941    51.3069   -11.1470 H             1 RES     
    6582 H           53.1134    49.8009   -10.9096 H             1 RES     
    6583 C           54.3350    51.5827   -11.0127 C             1 RES     
    6584 H           55.1773    51.1266   -10.4924 H             1 RES     
    6585 H           54.2579    52.6326   -10.7299 H             1 RES     
    6586 C           54.5528    51.4759   -12.5335 C             1 RES     
    6587 H           53.7105    51.9320   -13.0538 H             1 RES     
    6588 H           54.6299    50.4261   -12.8164 H             1 RES     
    6589 C           55.8515    52.2079   -12.9196 C             1 RES     
    6590 H           56.6938    51.7518   -12.3993 H             1 RES     
    6591 H           55.7744    53.2577   -12.6367 H             1 RES     
    6592 C           56.0693    52.1010   -14.4403 C             1 RES     
    6593 H           55.2270    52.5571   -14.9606 H             1 RES     
    6594 H           56.1464    51.0512   -14.7232 H             1 RES     
    6595 C           57.3680    52.8330   -14.8264 C             1 RES     
    6596 H           58.2103    52.3769   -14.3061 H             1 RES     
    6597 H           57.2909    53.8828   -14.5435 H             1 RES     
    6598 C           57.5858    52.7261   -16.3472 C             1 RES     
    6599 H           56.7435    53.1822   -16.8675 H             1 RES     
    6600 H           57.6629    51.6763   -16.6300 H             1 RES     
    6601 C           58.8845    53.4581   -16.7332 C             1 RES     
    6602 H           59.7268    53.0020   -16.2129 H             1 RES     
    6603 H           58.8074    54.5080   -16.4503 H             1 RES     
    6604 C           59.1023    53.3513   -18.2540 C             1 RES     
    6605 H           58.2600    53.8074   -18.7743 H             1 RES     
    6606 H           59.1794    52.3014   -18.5368 H             1 RES     
    6607 C           60.4010    54.0833   -18.6400 C             1 RES     
    6608 H           61.2433    53.6271   -18.1197 H             1 RES     
    6609 H           60.3239    55.1331   -18.3572 H             1 RES     
    6610 C           60.6188    53.9764   -20.1608 C             1 RES     
    6611 H           59.7765    54.4325   -20.6811 H             1 RES     
    6612 H           60.6959    52.9266   -20.4437 H             1 RES     
    6613 C           61.9175    54.7084   -20.5468 C             1 RES     
    6614 H           62.7598    54.2523   -20.0265 H             1 RES     
    6615 H           61.8404    55.7582   -20.2640 H             1 RES     
    6616 C           62.1254    54.6064   -21.9985 C             1 RES     
    6617 H           62.6779    53.7013   -21.8558 H             1 RES     
    6618 H           62.6013    55.2003   -22.7508 H             1 RES     
    6619 H           61.1279    54.3707   -22.3080 H             1 RES     
    6620 C           48.1097    51.0581    -5.3250 C             1 RES     
    6621 O           47.4498    50.0232    -5.4051 O             1 RES     
    6622 O           48.6045    51.6529    -4.0400 O             1 RES     
    6623 C           48.5032    51.8657    -6.4375 C             1 RES     
    6624 H           49.5906    51.9308    -6.4751 H             1 RES     
    6625 H           48.0829    52.8641    -6.3171 H             1 RES     
    6626 C           47.9810    51.2435    -7.7459 C             1 RES     
    6627 H           46.8936    51.1784    -7.7082 H             1 RES     
    6628 H           48.4014    50.2451    -7.8662 H             1 RES     
    6629 C           48.4012    52.1241    -8.9374 C             1 RES     
    6630 H           49.4886    52.1892    -8.9750 H             1 RES     
    6631 H           47.9808    53.1225    -8.8170 H             1 RES     
    6632 C           47.8790    51.5019   -10.2457 C             1 RES     
    6633 H           46.7916    51.4368   -10.2081 H             1 RES     
    6634 H           48.2993    50.5035   -10.3661 H             1 RES     
    6635 C           48.2991    52.3825   -11.4372 C             1 RES     
    6636 H           49.3865    52.4477   -11.4749 H             1 RES     
    6637 H           47.8788    53.3810   -11.3169 H             1 RES     
    6638 C           47.7769    51.7604   -12.7456 C             1 RES     
    6639 H           46.6895    51.6952   -12.7079 H             1 RES     
    6640 H           48.1973    50.7619   -12.8660 H             1 RES     
    6641 C           48.1971    52.6409   -13.9371 C             1 RES     
    6642 H           49.2845    52.7061   -13.9747 H             1 RES     
    6643 H           47.7767    53.6394   -13.8167 H             1 RES     
    6644 C           47.6749    52.0188   -15.2454 C             1 RES     
    6645 H           46.5875    51.9536   -15.2078 H             1 RES     
    6646 H           48.0952    51.0203   -15.3658 H             1 RES     
    6647 C           48.0951    52.8993   -16.4369 C             1 RES     
    6648 H           49.1824    52.9645   -16.4746 H             1 RES     
    6649 H           47.6747    53.8978   -16.3166 H             1 RES     
    6650 C           47.5728    52.2772   -17.7453 C             1 RES     
    6651 H           46.4854    52.2120   -17.7077 H             1 RES     
    6652 H           47.9932    51.2787   -17.8657 H             1 RES     
    6653 C           47.9930    53.1577   -18.9368 C             1 RES     
    6654 H           49.0804    53.2229   -18.9745 H             1 RES     
    6655 H           47.5726    54.1562   -18.8164 H             1 RES     
    6656 C           47.4708    52.5356   -20.2452 C             1 RES     
    6657 H           46.3834    52.4704   -20.2075 H             1 RES     
    6658 H           47.8912    51.5372   -20.3655 H             1 RES     
    6659 C           47.8910    53.4162   -21.4367 C             1 RES     
    6660 H           48.9784    53.4813   -21.4743 H             1 RES     
    6661 H           47.4706    54.4146   -21.3163 H             1 RES     
    6662 C           47.3687    52.7940   -22.7450 C             1 RES     
    6663 H           46.2813    52.7289   -22.7074 H             1 RES     
    6664 H           47.7891    51.7956   -22.8654 H             1 RES     
    6665 C           47.7889    53.6746   -23.9365 C             1 RES     
    6666 H           48.8763    53.7397   -23.9742 H             1 RES     
    6667 H           47.3685    54.6730   -23.8162 H             1 RES     
    6668 C           47.2667    53.0524   -25.2449 C             1 RES     
    6669 H           46.1793    52.9873   -25.2073 H             1 RES     
    6670 H           47.6871    52.0540   -25.3653 H             1 RES     
    6671 C           47.6678    53.8930   -26.3822 C             1 RES     
    6672 H           46.7616    54.4539   -26.2873 H             1 RES     
    6673 H           47.8819    53.7334   -27.4185 H             1 RES     
    6674 H           48.4727    54.4359   -25.9311 H             1 RES     
    6675 N           32.8634    27.3861     5.0000 N             1 RES     
    6676 C           33.1864    28.8166     5.2163 C             1 RES     
    6677 H           34.1395    29.1012     4.7226 H             1 RES     
    6678 H           33.3112    29.0386     6.3003 H             1 RES     
    6679 H           32.3781    29.4729     4.8234 H             1 RES     
    6680 C           33.9733    26.5457     5.5091 C             1 RES     
    6681 H           33.7668    25.4652     5.3400 H             1 RES     
    6682 H           34.1218    26.6989     6.6018 H             1 RES     
    6683 H           34.9374    26.7987     5.0194 H             1 RES     
    6684 C           31.6403    27.0620     5.7732 C             1 RES     
    6685 H           31.7858    27.2526     6.8606 H             1 RES     
    6686 H           31.3614    25.9907     5.6540 H             1 RES     
    6687 H           30.7765    27.6786     5.4364 H             1 RES     
    6688 C           32.5863    27.1044     3.5586 C             1 RES     
    6689 H           31.7220    27.7136     3.2097 H             1 RES     
    6690 H           32.3035    26.0355     3.4260 H             1 RES     
    6691 C           33.7496    27.3833     2.5960 C             1 RES     
    6692 H           34.6301    26.7390     2.7918 H             1 RES     
    6693 H           34.0359    28.4539     2.5707 H             1 RES     
    6694 P           32.9548    28.3415     0.4318 P             1 RES     
    6695 O           32.7040    28.0129    -1.1139 O             1 RES     
    6696 O           33.5295    27.0421     1.1676 O             1 RES     
    6697 O           34.0443    29.5120     0.4849 O             1 RES     
    6698 O           31.5344    28.7271     1.0592 O             1 RES     
    6699 C           32.1723    29.2381    -1.7631 C             1 RES     
    6700 H           32.8972    30.0459    -1.6628 H             1 RES     
    6701 H           31.2372    29.5267    -1.2830 H             1 RES     
    6702 C           32.2992    27.5031    -3.5797 C             1 RES     
    6703 H           33.3543    27.3458    -3.3557 H             1 RES     
    6704 H           31.6943    26.8266    -2.9759 H             1 RES     
    6705 C           31.9178    28.9596    -3.2561 C             1 RES     
    6706 H           30.8627    29.1169    -3.4801 H             1 RES     
    6707 C           33.4401    27.6599    -5.4006 C             1 RES     
    6708 O           34.2996    28.0547    -4.6142 O             1 RES     
    6709 O           32.0563    27.2373    -5.0049 O             1 RES     
    6710 C           33.6212    27.5300    -6.8131 C             1 RES     
    6711 H           32.8985    28.1586    -7.3334 H             1 RES     
    6712 H           33.4677    26.4886    -7.0959 H             1 RES     
    6713 C           35.0482    27.9614    -7.1991 C             1 RES     
    6714 H           35.7708    27.3328    -6.6788 H             1 RES     
    6715 H           35.2016    29.0029    -6.9162 H             1 RES     
    6716 C           35.2374    27.8097    -8.7199 C             1 RES     
    6717 H           34.5148    28.4383    -9.2402 H             1 RES     
    6718 H           35.0839    26.7683    -9.0027 H             1 RES     
    6719 C           36.6644    28.2412    -9.1059 C             1 RES     
    6720 H           37.3871    27.6126    -8.5856 H             1 RES     
    6721 H           36.8179    29.2826    -8.8231 H             1 RES     
    6722 C           36.8537    28.0895   -10.6267 C             1 RES     
    6723 H           36.1310    28.7181   -11.1470 H             1 RES     
    6724 H           36.7002    27.0481   -10.9096 H             1 RES     
    6725 C           38.2807    28.5209   -11.0127 C             1 RES     
    6726 H           39.0033    27.8923   -10.4924 H             1 RES     
    6727 H           38.4342    29.5623   -10.7299 H             1 RES     
    6728 C           38.4699    28.3692   -12.5335 C             1 RES     
    6729 H           37.7473    28.9978   -13.0538 H             1 RES     
    6730 H           38.3165    27.3278   -12.8164 H             1 RES     
    6731 C           39.8970    28.8007   -12.9196 C             1 RES     
    6732 H           40.6196    28.1721   -12.3993 H             1 RES     
    6733 H           40.0504    29.8421   -12.6367 H             1 RES     
    6734 C           40.0862    28.6490   -14.4403 C             1 RES     
    6735 H           39.3635    29.2776   -14.9606 H             1 RES     
    6736 H           39.9327    27.6075   -14.7232 H             1 RES     
    6737 C           41.5132    29.0804   -14.8264 C             1 RES     
    6738 H           42.2358    28.4518   -14.3061 H             1 RES     
    6739 H           41.6667    30.1218   -14.5435 H             1 RES     
    6740 C           41.7024    28.9287   -16.3472 C             1 RES     
    6741 H           40.9798    29.5573   -16.8675 H             1 RES     
    6742 H           41.5490    27.8873   -16.6300 H             1 RES     
    6743 C           43.1295    29.3602   -16.7332 C             1 RES     
    6744 H           43.8521    28.7315   -16.2129 H             1 RES     
    6745 H           43.2829    30.4016   -16.4503 H             1 RES     
    6746 C           43.3187    29.2085   -18.2540 C             1 RES     
    6747 H           42.5961    29.8371   -18.7743 H             1 RES     
    6748 H           43.1652    28.1670   -18.5368 H             1 RES     
    6749 C           44.7457    29.6399   -18.6400 C             1 RES     
    6750 H           45.4684    29.0113   -18.1197 H             1 RES     
    6751 H           44.8992    30.6813   -18.3572 H             1 RES     
    6752 C           44.9350    29.4882   -20.1608 C             1 RES     
    6753 H           44.2123    30.1168   -20.6811 H             1 RES     
    6754 H           44.7815    28.4468   -20.4437 H             1 RES     
    6755 C           46.3620    29.9197   -20.5468 C             1 RES     
    6756 H           47.0846    29.2910   -20.0265 H             1 RES     
    6757 H           46.5154    30.9611   -20.2640 H             1 RES     
    6758 C           46.5426    29.7748   -21.9985 C             1 RES     
    6759 H           46.8847    28.7711   -21.8558 H             1 RES     
    6760 H           47.1365    30.2508   -22.7508 H             1 RES     
    6761 H           45.5178    29.7621   -22.3080 H             1 RES     
    6762 C           32.0906    29.3650    -5.3250 C             1 RES     
    6763 O           31.2210    28.4988    -5.4051 O             1 RES     
    6764 O           32.7031    29.8378    -4.0400 O             1 RES     
    6765 C           32.6506    30.0675    -6.4375 C             1 RES     
    6766 H           33.7261    29.8942    -6.4751 H             1 RES     
    6767 H           32.4578    31.1336    -6.3171 H             1 RES     
    6768 C           32.0054    29.5741    -7.7459 C             1 RES     
    6769 H           30.9299    29.7474    -7.7082 H             1 RES     
    6770 H           32.1981    28.5080    -7.8662 H             1 RES     
    6771 C           32.6073    30.3420    -8.9374 C             1 RES     
    6772 H           33.6828    30.1687    -8.9750 H             1 RES     
    6773 H           32.4145    31.4080    -8.8170 H             1 RES     
    6774 C           31.9621    29.8485   -10.2457 C             1 RES     
    6775 H           30.8866    30.0218   -10.2081 H             1 RES     
    6776 H           32.1548    28.7825   -10.3661 H             1 RES     
    6777 C           32.5640    30.6164   -11.4372 C             1 RES     
    6778 H           33.6395    30.4431   -11.4749 H             1 RES     
    6779 H           32.3712    31.6824   -11.3169 H             1 RES     
    6780 C           31.9188    30.1230   -12.7456 C             1 RES     
    6781 H           30.8433    30.2963   -12.7079 H             1 RES     
    6782 H           32.1115    29.0569   -12.8660 H             1 RES     
    6783 C           32.5207    30.8908   -13.9371 C             1 RES     
    6784 H           33.5962    30.7175   -13.9747 H             1 RES     
    6785 H           32.3279    31.9569   -13.8167 H             1 RES     
    6786 C           31.8755    30.3974   -15.2454 C             1 RES     
    6787 H           30.8000    30.5707   -15.2078 H             1 RES     
    6788 H           32.0682    29.3314   -15.3658 H             1 RES     
    6789 C           32.4774    31.1653   -16.4369 C             1 RES     
    6790 H           33.5529    30.9920   -16.4746 H             1 RES     
    6791 H           32.2846    32.2313   -16.3166 H             1 RES     
    6792 C           31.8322    30.6718   -17.7453 C             1 RES     
    6793 H           30.7567    30.8451   -17.7077 H             1 RES     
    6794 H           32.0249    29.6058   -17.8657 H             1 RES     
    6795 C           32.4341    31.4397   -18.9368 C             1 RES     
    6796 H           33.5096    31.2664   -18.9745 H             1 RES     
    6797 H           32.2413    32.5058   -18.8164 H             1 RES     
    6798 C           31.7889    30.9463   -20.2452 C             1 RES     
    6799 H           30.7134    31.1196   -20.2075 H             1 RES     
    6800 H           31.9816    29.8802   -20.3655 H             1 RES     
    6801 C           32.3908    31.7141   -21.4367 C             1 RES     
    6802 H           33.4663    31.5408   -21.4743 H             1 RES     
    6803 H           32.1980    32.7802   -21.3163 H             1 RES     
    6804 C           31.7456    31.2207   -22.7450 C             1 RES     
    6805 H           30.6701    31.3940   -22.7074 H             1 RES     
    6806 H           31.9383    30.1547   -22.8654 H             1 RES     
    6807 C           32.3475    31.9886   -23.9365 C             1 RES     
    6808 H           33.4230    31.8153   -23.9742 H             1 RES     
    6809 H           32.1547    33.0546   -23.8162 H             1 RES     
    6810 C           31.7023    31.4951   -25.2449 C             1 RES     
    6811 H           30.6268    31.6685   -25.2073 H             1 RES     
    6812 H           31.8950    30.4291   -25.3653 H             1 RES     
    6813 C           32.2768    32.2281   -26.3822 C             1 RES     
    6814 H           31.5146    32.9730   -26.2873 H             1 RES     
    6815 H           32.4511    32.0258   -27.4185 H             1 RES     
    6816 H           33.1807    32.5827   -25.9311 H             1 RES     
    6817 N           38.3406    38.3406     5.0000 N             1 RES     
    6818 C           38.7135    39.7589     5.2163 C             1 RES     
    6819 H           39.6760    40.0099     4.7226 H             1 RES     
    6820 H           38.8460    39.9764     6.3003 H             1 RES     
    6821 H           37.9286    40.4431     4.8234 H             1 RES     
    6822 C           39.4204    37.4618     5.5091 C             1 RES     
    6823 H           39.1762    36.3892     5.3400 H             1 RES     
    6824 H           39.5742    37.6098     6.6018 H             1 RES     
    6825 H           40.3928    37.6809     5.0194 H             1 RES     
    6826 C           37.1069    38.0595     5.7732 C             1 RES     
    6827 H           37.2590    38.2449     6.8606 H             1 RES     
    6828 H           36.7907    36.9985     5.6540 H             1 RES     
    6829 H           36.2653    38.7059     5.4364 H             1 RES     
    6830 C           38.0539    38.0687     3.5586 C             1 RES     
    6831 H           37.2114    38.7078     3.2097 H             1 RES     
    6832 H           37.7338    37.0104     3.4260 H             1 RES     
    6833 C           39.2262    38.3067     2.5960 C             1 RES     
    6834 H           40.0836    37.6320     2.7918 H             1 RES     
    6835 H           39.5498    39.3667     2.5707 H             1 RES     
    6836 P           38.4654    39.2922     0.4318 P             1 RES     
    6837 O           38.2032    38.9725    -1.1139 O             1 RES     
    6838 O           38.9943    37.9735     1.1676 O             1 RES     
    6839 O           39.5953    40.4238     0.4849 O             1 RES     
    6840 O           37.0594    39.7272     1.0592 O             1 RES     
    6841 C           37.7148    40.2156    -1.7631 C             1 RES     
    6842 H           38.4675    40.9975    -1.6628 H             1 RES     
    6843 H           36.7904    40.5368    -1.2830 H             1 RES     
    6844 C           37.7809    38.4772    -3.5797 C             1 RES     
    6845 H           38.8298    38.2831    -3.3557 H             1 RES     
    6846 H           37.1527    37.8224    -2.9759 H             1 RES     
    6847 C           37.4507    39.9462    -3.2561 C             1 RES     
    6848 H           36.4017    40.1403    -3.4801 H             1 RES     
    6849 C           38.9265    38.5940    -5.4006 C             1 RES     
    6850 O           39.7993    38.9585    -4.6142 O             1 RES     
    6851 O           37.5288    38.2201    -5.0049 O             1 RES     
    6852 C           39.1029    38.4578    -6.8131 C             1 RES     
    6853 H           38.4028    39.1113    -7.3334 H             1 RES     
    6854 H           38.9131    37.4224    -7.0959 H             1 RES     
    6855 C           40.5442    38.8391    -7.1991 C             1 RES     
    6856 H           41.2444    38.1855    -6.6788 H             1 RES     
    6857 H           40.7340    39.8745    -6.9162 H             1 RES     
    6858 C           40.7280    38.6808    -8.7199 C             1 RES     
    6859 H           40.0278    39.3344    -9.2402 H             1 RES     
    6860 H           40.5382    37.6454    -9.0027 H             1 RES     
    6861 C           42.1693    39.0621    -9.1059 C             1 RES     
    6862 H           42.8695    38.4085    -8.5856 H             1 RES     
    6863 H           42.3591    40.0975    -8.8231 H             1 RES     
    6864 C           42.3531    38.9038   -10.6267 C             1 RES     
    6865 H           41.6529    39.5574   -11.1470 H             1 RES     
    6866 H           42.1632    37.8684   -10.9096 H             1 RES     
    6867 C           43.7943    39.2851   -11.0127 C             1 RES     
    6868 H           44.4945    38.6315   -10.4924 H             1 RES     
    6869 H           43.9841    40.3205   -10.7299 H             1 RES     
    6870 C           43.9781    39.1268   -12.5335 C             1 RES     
    6871 H           43.2779    39.7804   -13.0538 H             1 RES     
    6872 H           43.7883    38.0914   -12.8164 H             1 RES     
    6873 C           45.4194    39.5081   -12.9196 C             1 RES     
    6874 H           46.1196    38.8545   -12.3993 H             1 RES     
    6875 H           45.6092    40.5435   -12.6367 H             1 RES     
    6876 C           45.6032    39.3498   -14.4403 C             1 RES     
    6877 H           44.9030    40.0034   -14.9606 H             1 RES     
    6878 H           45.4134    38.3144   -14.7232 H             1 RES     
    6879 C           47.0444    39.7311   -14.8264 C             1 RES     
    6880 H           47.7446    39.0775   -14.3061 H             1 RES     
    6881 H           47.2343    40.7665   -14.5435 H             1 RES     
    6882 C           47.2282    39.5728   -16.3472 C             1 RES     
    6883 H           46.5280    40.2264   -16.8675 H             1 RES     
    6884 H           47.0384    38.5374   -16.6300 H             1 RES     
    6885 C           48.6695    39.9541   -16.7332 C             1 RES     
    6886 H           49.3697    39.3005   -16.2129 H             1 RES     
    6887 H           48.8593    40.9895   -16.4503 H             1 RES     
    6888 C           48.8533    39.7958   -18.2540 C             1 RES     
    6889 H           48.1531    40.4494   -18.7743 H             1 RES     
    6890 H           48.6635    38.7604   -18.5368 H             1 RES     
    6891 C           50.2946    40.1771   -18.6400 C             1 RES     
    6892 H           50.9948    39.5235   -18.1197 H             1 RES     
    6893 H           50.4844    41.2125   -18.3572 H             1 RES     
    6894 C           50.4784    40.0188   -20.1608 C             1 RES     
    6895 H           49.7782    40.6724   -20.6811 H             1 RES     
    6896 H           50.2885    38.9834   -20.4437 H             1 RES     
    6897 C           51.9196    40.4001   -20.5468 C             1 RES     
    6898 H           52.6198    39.7465   -20.0265 H             1 RES     
    6899 H           52.1094    41.4355   -20.2640 H             1 RES     
    6900 C           52.0951    40.2490   -21.9985 C             1 RES     
    6901 H           52.4018    39.2339   -21.8558 H             1 RES     
    6902 H           52.7052    40.7039   -22.7508 H             1 RES     
    6903 H           51.0704    40.2722   -22.3080 H             1 RES     
    6904 C           37.6375    40.3453    -5.3250 C             1 RES     
    6905 O           36.7382    39.5100    -5.4051 O             1 RES     
    6906 O           38.2662    40.7963    -4.0400 O             1 RES     
    6907 C           38.2218    41.0278    -6.4375 C             1 RES     
    6908 H           39.2905    40.8169    -6.4751 H             1 RES     
    6909 H           38.0665    42.0999    -6.3171 H             1 RES     
    6910 C           37.5597    40.5572    -7.7459 C             1 RES     
    6911 H           36.4909    40.7681    -7.7082 H             1 RES     
    6912 H           37.7150    39.4851    -7.8662 H             1 RES     
    6913 C           38.1881    41.3036    -8.9374 C             1 RES     
    6914 H           39.2569    41.0927    -8.9750 H             1 RES     
    6915 H           38.0328    42.3757    -8.8170 H             1 RES     
    6916 C           37.5260    40.8330   -10.2457 C             1 RES     
    6917 H           36.4573    41.0439   -10.2081 H             1 RES     
    6918 H           37.6814    39.7609   -10.3661 H             1 RES     
    6919 C           38.1545    41.5794   -11.4372 C             1 RES     
    6920 H           39.2232    41.3685   -11.4749 H             1 RES     
    6921 H           37.9991    42.6515   -11.3169 H             1 RES     
    6922 C           37.4924    41.1088   -12.7456 C             1 RES     
    6923 H           36.4236    41.3196   -12.7079 H             1 RES     
    6924 H           37.6477    40.0367   -12.8660 H             1 RES     
    6925 C           38.1208    41.8551   -13.9371 C             1 RES     
    6926 H           39.1895    41.6443   -13.9747 H             1 RES     
    6927 H           37.9655    42.9273   -13.8167 H             1 RES     
    6928 C           37.4587    41.3846   -15.2454 C             1 RES     
    6929 H           36.3900    41.5954   -15.2078 H             1 RES     
    6930 H           37.6140    40.3124   -15.3658 H             1 RES     
    6931 C           38.0871    42.1309   -16.4369 C             1 RES     
    6932 H           39.1559    41.9201   -16.4746 H             1 RES     
    6933 H           37.9318    43.2031   -16.3166 H             1 RES     
    6934 C           37.4250    41.6604   -17.7453 C             1 RES     
    6935 H           36.3563    41.8712   -17.7077 H             1 RES     
    6936 H           37.5804    40.5882   -17.8657 H             1 RES     
    6937 C           38.0535    42.4067   -18.9368 C             1 RES     
    6938 H           39.1222    42.1959   -18.9745 H             1 RES     
    6939 H           37.8981    43.4788   -18.8164 H             1 RES     
    6940 C           37.3914    41.9362   -20.2452 C             1 RES     
    6941 H           36.3226    42.1470   -20.2075 H             1 RES     
    6942 H           37.5467    40.8640   -20.3655 H             1 RES     
    6943 C           38.0198    42.6825   -21.4367 C             1 RES     
    6944 H           39.0885    42.4716   -21.4743 H             1 RES     
    6945 H           37.8645    43.7546   -21.3163 H             1 RES     
    6946 C           37.3577    42.2119   -22.7450 C             1 RES     
    6947 H           36.2890    42.4228   -22.7074 H             1 RES     
    6948 H           37.5130    41.1398   -22.8654 H             1 RES     
    6949 C           37.9861    42.9583   -23.9365 C             1 RES     
    6950 H           39.0549    42.7474   -23.9742 H             1 RES     
    6951 H           37.8308    44.0304   -23.8162 H             1 RES     
    6952 C           37.3240    42.4877   -25.2449 C             1 RES     
    6953 H           36.2553    42.6986   -25.2073 H             1 RES     
    6954 H           37.4794    41.4156   -25.3653 H             1 RES     
    6955 C           37.9239    43.2001   -26.3822 C             1 RES     
    6956 H           37.1882    43.9712   -26.2873 H             1 RES     
    6957 H           38.0910    42.9918   -27.4185 H             1 RES     
    6958 H           38.8396    43.5229   -25.9311 H             1 RES     
    6959 N            0.0000    32.8634     5.0000 N             1 RES     
    6960 C           -0.2050    34.3154     5.2163 C             1 RES     
    6961 H            0.5853    34.9194     4.7226 H             1 RES     
    6962 H           -0.1671    34.5673     6.3003 H             1 RES     
    6963 H           -1.1935    34.6426     4.8234 H             1 RES     
    6964 C            1.3358    32.4709     5.5091 C             1 RES     
    6965 H            1.5257    31.3875     5.3400 H             1 RES     
    6966 H            1.4203    32.6669     6.6018 H             1 RES     
    6967 H            2.1476    33.0493     5.0194 H             1 RES     
    6968 C           -1.0287    32.1267     5.7732 C             1 RES     
    6969 H           -0.9603    32.3565     6.8606 H             1 RES     
    6970 H           -0.9097    31.0261     5.6540 H             1 RES     
    6971 H           -2.0550    32.3971     5.4364 H             1 RES     
    6972 C           -0.1592    32.5017     3.5586 C             1 RES     
    6973 H           -1.1833    32.7650     3.2097 H             1 RES     
    6974 H           -0.0447    31.4020     3.4260 H             1 RES     
    6975 C            0.8297    33.1749     2.5960 C             1 RES     
    6976 H            1.8814    32.8846     2.7918 H             1 RES     
    6977 H            0.7179    34.2775     2.5707 H             1 RES     
    6978 P           -0.2531    33.7891     0.4318 P             1 RES     
    6979 O           -0.3712    33.3929    -1.1139 O             1 RES     
    6980 O            0.7449    32.7778     1.1676 O             1 RES     
    6981 O            0.3507    35.2698     0.4849 O             1 RES     
    6982 O           -1.7180    33.6461     1.0592 O             1 RES     
    6983 C           -1.3027    34.3501    -1.7631 C             1 RES     
    6984 H           -0.9112    35.3624    -1.6628 H             1 RES     
    6985 H           -2.2794    34.2885    -1.2830 H             1 RES     
    6986 C           -0.5689    32.7728    -3.5797 C             1 RES     
    6987 H            0.4734    32.9997    -3.3557 H             1 RES     
    6988 H           -0.8948    31.9258    -2.9759 H             1 RES     
    6989 C           -1.4419    33.9995    -3.2561 C             1 RES     
    6990 H           -2.4843    33.7725    -3.4801 H             1 RES     
    6991 C            0.4422    33.3238    -5.4006 C             1 RES     
    6992 O            1.1059    33.9976    -4.6142 O             1 RES     
    6993 O           -0.7019    32.4381    -5.0049 O             1 RES     
    6994 C            0.6576    33.2665    -6.8131 C             1 RES     
    6995 H           -0.2410    33.5981    -7.3334 H             1 RES     
    6996 H            0.8833    32.2383    -7.0959 H             1 RES     
    6997 C            1.8390    34.1758    -7.1991 C             1 RES     
    6998 H            2.7376    33.8442    -6.6788 H             1 RES     
    6999 H            1.6133    35.2040    -6.9162 H             1 RES     
    7000 C            2.0697    34.1010    -8.7199 C             1 RES     
    7001 H            1.1712    34.4327    -9.2402 H             1 RES     
    7002 H            2.2954    33.0728    -9.0027 H             1 RES     
    7003 C            3.2511    35.0103    -9.1059 C             1 RES     
    7004 H            4.1497    34.6787    -8.5856 H             1 RES     
    7005 H            3.0255    36.0385    -8.8231 H             1 RES     
    7006 C            3.4819    34.9355   -10.6267 C             1 RES     
    7007 H            2.5833    35.2672   -11.1470 H             1 RES     
    7008 H            3.7075    33.9074   -10.9096 H             1 RES     
    7009 C            4.6633    35.8449   -11.0127 C             1 RES     
    7010 H            5.5618    35.5132   -10.4924 H             1 RES     
    7011 H            4.4376    36.8730   -10.7299 H             1 RES     
    7012 C            4.8940    35.7701   -12.5335 C             1 RES     
    7013 H            3.9954    36.1017   -13.0538 H             1 RES     
    7014 H            5.1197    34.7419   -12.8164 H             1 RES     
    7015 C            6.0754    36.6794   -12.9196 C             1 RES     
    7016 H            6.9739    36.3477   -12.3993 H             1 RES     
    7017 H            5.8497    37.7076   -12.6367 H             1 RES     
    7018 C            6.3061    36.6046   -14.4403 C             1 RES     
    7019 H            5.4076    36.9362   -14.9606 H             1 RES     
    7020 H            6.5318    35.5764   -14.7232 H             1 RES     
    7021 C            7.4875    37.5139   -14.8264 C             1 RES     
    7022 H            8.3861    37.1823   -14.3061 H             1 RES     
    7023 H            7.2618    38.5421   -14.5435 H             1 RES     
    7024 C            7.7182    37.4391   -16.3472 C             1 RES     
    7025 H            6.8197    37.7708   -16.8675 H             1 RES     
    7026 H            7.9439    36.4109   -16.6300 H             1 RES     
    7027 C            8.8997    38.3484   -16.7332 C             1 RES     
    7028 H            9.7982    38.0168   -16.2129 H             1 RES     
    7029 H            8.6740    39.3766   -16.4503 H             1 RES     
    7030 C            9.1304    38.2736   -18.2540 C             1 RES     
    7031 H            8.2318    38.6053   -18.7743 H             1 RES     
    7032 H            9.3561    37.2455   -18.5368 H             1 RES     
    7033 C           10.3118    39.1830   -18.6400 C             1 RES     
    7034 H           11.2103    38.8513   -18.1197 H             1 RES     
    7035 H           10.0861    40.2111   -18.3572 H             1 RES     
    7036 C           10.5425    39.1082   -20.1608 C             1 RES     
    7037 H            9.6440    39.4398   -20.6811 H             1 RES     
    7038 H           10.7682    38.0800   -20.4437 H             1 RES     
    7039 C           11.7239    40.0175   -20.5468 C             1 RES     
    7040 H           12.6225    39.6858   -20.0265 H             1 RES     
    7041 H           11.4982    41.0457   -20.2640 H             1 RES     
    7042 C           11.9442    39.9461   -21.9985 C             1 RES     
    7043 H           12.6198    39.1288   -21.8558 H             1 RES     
    7044 H           12.3307    40.6017   -22.7508 H             1 RES     
    7045 H           10.9904    39.5709   -22.3080 H             1 RES     
    7046 C           -1.4241    34.4398    -5.3250 C             1 RES     
    7047 O           -1.9301    33.3216    -5.4051 O             1 RES     
    7048 O           -1.0189    35.0990    -4.0400 O             1 RES     
    7049 C           -1.1495    35.2952    -6.4375 C             1 RES     
    7050 H           -0.0824    35.5144    -6.4751 H             1 RES     
    7051 H           -1.7076    36.2237    -6.3171 H             1 RES     
    7052 C           -1.5779    34.6051    -7.7459 C             1 RES     
    7053 H           -2.6450    34.3859    -7.7082 H             1 RES     
    7054 H           -1.0197    33.6766    -7.8662 H             1 RES     
    7055 C           -1.2873    35.5365    -8.9374 C             1 RES     
    7056 H           -0.2202    35.7557    -8.9750 H             1 RES     
    7057 H           -1.8454    36.4649    -8.8170 H             1 RES     
    7058 C           -1.7157    34.8464   -10.2457 C             1 RES     
    7059 H           -2.7827    34.6272   -10.2081 H             1 RES     
    7060 H           -1.1575    33.9179   -10.3661 H             1 RES     
    7061 C           -1.4250    35.7777   -11.4372 C             1 RES     
    7062 H           -0.3580    35.9969   -11.4749 H             1 RES     
    7063 H           -1.9832    36.7062   -11.3169 H             1 RES     
    7064 C           -1.8534    35.0876   -12.7456 C             1 RES     
    7065 H           -2.9205    34.8684   -12.7079 H             1 RES     
    7066 H           -1.2953    34.1591   -12.8660 H             1 RES     
    7067 C           -1.5628    36.0190   -13.9371 C             1 RES     
    7068 H           -0.4957    36.2382   -13.9747 H             1 RES     
    7069 H           -2.1209    36.9475   -13.8167 H             1 RES     
    7070 C           -1.9912    35.3289   -15.2454 C             1 RES     
    7071 H           -3.0583    35.1097   -15.2078 H             1 RES     
    7072 H           -1.4330    34.4004   -15.3658 H             1 RES     
    7073 C           -1.7006    36.2603   -16.4369 C             1 RES     
    7074 H           -0.6335    36.4795   -16.4746 H             1 RES     
    7075 H           -2.2587    37.1887   -16.3166 H             1 RES     
    7076 C           -2.1290    35.5701   -17.7453 C             1 RES     
    7077 H           -3.1960    35.3510   -17.7077 H             1 RES     
    7078 H           -1.5708    34.6417   -17.8657 H             1 RES     
    7079 C           -1.8383    36.5015   -18.9368 C             1 RES     
    7080 H           -0.7713    36.7207   -18.9745 H             1 RES     
    7081 H           -2.3965    37.4300   -18.8164 H             1 RES     
    7082 C           -2.2667    35.8114   -20.2452 C             1 RES     
    7083 H           -3.3338    35.5922   -20.2075 H             1 RES     
    7084 H           -1.7086    34.8829   -20.3655 H             1 RES     
    7085 C           -1.9761    36.7428   -21.4367 C             1 RES     
    7086 H           -0.9090    36.9620   -21.4743 H             1 RES     
    7087 H           -2.5343    37.6713   -21.3163 H             1 RES     
    7088 C           -2.4045    36.0527   -22.7450 C             1 RES     
    7089 H           -3.4716    35.8335   -22.7074 H             1 RES     
    7090 H           -1.8464    35.1242   -22.8654 H             1 RES     
    7091 C           -2.1139    36.9841   -23.9365 C             1 RES     
    7092 H           -1.0468    37.2033   -23.9742 H             1 RES     
    7093 H           -2.6720    37.9125   -23.8162 H             1 RES     
    7094 C           -2.5423    36.2939   -25.2449 C             1 RES     
    7095 H           -3.6094    36.0747   -25.2073 H             1 RES     
    7096 H           -1.9841    35.3655   -25.3653 H             1 RES     
    7097 C           -2.2649    37.1830   -26.3822 C             1 RES     
    7098 H           -3.2417    37.6093   -26.2873 H             1 RES     
    7099 H           -2.0302    37.0556   -27.4185 H             1 RES     
    7100 H           -1.5454    37.8350   -25.9311 H             1 RES     
    7101 C           57.8179    10.1951   -20.5091 C             1 RES     
    7102 H           57.8298    11.2646   -20.5393 H             1 RES     
    7103 H           58.0716     9.8078   -21.4739 H             1 RES     
    7104 H           58.5300     9.8504   -19.7877 H             1 RES     
    7105 C           48.9122    10.9193     1.6071 C             1 RES     
    7106 H           48.3306    11.8096     1.3678 H             1 RES     
    7107 H           48.3108    10.0301     1.4181 H             1 RES     
    7108 C           50.1757    10.8804     0.7275 C             1 RES     
    7109 H           50.7573     9.9902     0.9667 H             1 RES     
    7110 H           50.7772    11.7696     0.9165 H             1 RES     
    7111 C           49.7677    10.8430    -0.7570 C             1 RES     
    7112 H           49.1861    11.7333    -0.9962 H             1 RES     
    7113 H           49.1663     9.9538    -0.9459 H             1 RES     
    7114 C           51.0312    10.8041    -1.6365 C             1 RES     
    7115 H           51.6129     9.9138    -1.3973 H             1 RES     
    7116 H           51.6327    11.6933    -1.4476 H             1 RES     
    7117 C           50.6232    10.7667    -3.1210 C             1 RES     
    7118 H           50.0416    11.6569    -3.3603 H             1 RES     
    7119 H           50.0218     9.8775    -3.3100 H             1 RES     
    7120 C           51.8867    10.7277    -4.0006 C             1 RES     
    7121 H           52.4684     9.8375    -3.7614 H             1 RES     
    7122 H           52.4882    11.6169    -3.8117 H             1 RES     
    7123 C           51.4787    10.6903    -5.4851 C             1 RES     
    7124 H           50.8971    11.5806    -5.7243 H             1 RES     
    7125 H           50.8773     9.8011    -5.6740 H             1 RES     
    7126 C           52.7422    10.6514    -6.3647 C             1 RES     
    7127 H           53.3239     9.7611    -6.1254 H             1 RES     
    7128 H           53.3437    11.5406    -6.1757 H             1 RES     
    7129 C           52.3342    10.6140    -7.8492 C             1 RES     
    7130 H           51.7526    11.5042    -8.0884 H             1 RES     
    7131 H           51.7328     9.7248    -8.0381 H             1 RES     
    7132 C           53.5977    10.5750    -8.7287 C             1 RES     
    7133 H           54.1794     9.6848    -8.4895 H             1 RES     
    7134 H           54.1992    11.4642    -8.5398 H             1 RES     
    7135 C           53.1898    10.5376   -10.2132 C             1 RES     
    7136 H           52.6081    11.4279   -10.4525 H             1 RES     
    7137 H           52.5883     9.6484   -10.4022 H             1 RES     
    7138 C           54.4533    10.4987   -11.0928 C             1 RES     
    7139 H           55.0349     9.6084   -10.8536 H             1 RES     
    7140 H           55.0547    11.3879   -10.9039 H             1 RES     
    7141 C           54.0453    10.4613   -12.5773 C             1 RES     
    7142 H           53.4636    11.3515   -12.8165 H             1 RES     
    7143 H           53.4438     9.5721   -12.7662 H             1 RES     
    7144 C           55.3088    10.4224   -13.4569 C             1 RES     
    7145 H           55.8904     9.5321   -13.2176 H             1 RES     
    7146 H           55.9102    11.3116   -13.2679 H             1 RES     
    7147 C           54.9008    10.3849   -14.9414 C             1 RES     
    7148 H           54.3191    11.2752   -15.1806 H             1 RES     
    7149 H           54.2993     9.4957   -15.1303 H             1 RES     
    7150 C           56.1643    10.3460   -15.8209 C             1 RES     
    7151 H           56.7459     9.4558   -15.5817 H             1 RES     
    7152 H           56.7657    11.2352   -15.6320 H             1 RES     
    7153 C           55.7563    10.3086   -17.3054 C             1 RES     
    7154 H           55.1746    11.1989   -17.5446 H             1 RES     
    7155 H           55.1548     9.4194   -17.4944 H             1 RES     
    7156 C           57.0198    10.2697   -18.1850 C             1 RES     
    7157 H           57.6014     9.3794   -17.9457 H             1 RES     
    7158 H           57.6212    11.1589   -17.9960 H             1 RES     
    7159 C           56.6118    10.2323   -19.6695 C             1 RES     
    7160 H           56.0302    11.1225   -19.9087 H             1 RES     
    7161 H           56.0103     9.3431   -19.8584 H             1 RES     
    7162 O           49.2950    10.9545     3.0000 O             1 RES     
    7163 H           49.3635    10.0491     3.3118 H             1 RES     
    7164 C           52.3239    10.0258   -20.5091 C             1 RES     
    7165 H           52.3570    11.0948   -20.5393 H             1 RES     
    7166 H           52.5698     9.6335   -21.4739 H             1 RES     
    7167 H           53.0290     9.6670   -19.7877 H             1 RES     
    7168 C           43.4344    10.9270     1.6071 C             1 RES     
    7169 H           42.8705    11.8286     1.3678 H             1 RES     
    7170 H           42.8153    10.0499     1.4181 H             1 RES     
    7171 C           44.6968    10.8629     0.7275 C             1 RES     
    7172 H           45.2607     9.9613     0.9667 H             1 RES     
    7173 H           45.3158    11.7400     0.9165 H             1 RES     
    7174 C           44.2882    10.8336    -0.7570 C             1 RES     
    7175 H           43.7244    11.7353    -0.9962 H             1 RES     
    7176 H           43.6692     9.9566    -0.9459 H             1 RES     
    7177 C           45.5507    10.7696    -1.6365 C             1 RES     
    7178 H           46.1145     9.8679    -1.3973 H             1 RES     
    7179 H           46.1697    11.6466    -1.4476 H             1 RES     
    7180 C           45.1420    10.7403    -3.1210 C             1 RES     
    7181 H           44.5782    11.6419    -3.3603 H             1 RES     
    7182 H           44.5230     9.8632    -3.3100 H             1 RES     
    7183 C           46.4045    10.6762    -4.0006 C             1 RES     
    7184 H           46.9683     9.7746    -3.7614 H             1 RES     
    7185 H           47.0235    11.5533    -3.8117 H             1 RES     
    7186 C           45.9958    10.6469    -5.4851 C             1 RES     
    7187 H           45.4320    11.5486    -5.7243 H             1 RES     
    7188 H           45.3768     9.7699    -5.6740 H             1 RES     
    7189 C           47.2583    10.5829    -6.3647 C             1 RES     
    7190 H           47.8221     9.6812    -6.1254 H             1 RES     
    7191 H           47.8773    11.4600    -6.1757 H             1 RES     
    7192 C           46.8496    10.5536    -7.8492 C             1 RES     
    7193 H           46.2858    11.4552    -8.0884 H             1 RES     
    7194 H           46.2306     9.6765    -8.0381 H             1 RES     
    7195 C           48.1121    10.4896    -8.7287 C             1 RES     
    7196 H           48.6759     9.5879    -8.4895 H             1 RES     
    7197 H           48.7311    11.3666    -8.5398 H             1 RES     
    7198 C           47.7035    10.4603   -10.2132 C             1 RES     
    7199 H           47.1396    11.3619   -10.4525 H             1 RES     
    7200 H           47.0845     9.5832   -10.4022 H             1 RES     
    7201 C           48.9660    10.3962   -11.0928 C             1 RES     
    7202 H           49.5298     9.4946   -10.8536 H             1 RES     
    7203 H           49.5850    11.2733   -10.9039 H             1 RES     
    7204 C           48.5573    10.3669   -12.5773 C             1 RES     
    7205 H           47.9935    11.2686   -12.8165 H             1 RES     
    7206 H           47.9383     9.4899   -12.7662 H             1 RES     
    7207 C           49.8198    10.3029   -13.4569 C             1 RES     
    7208 H           50.3836     9.4012   -13.2176 H             1 RES     
    7209 H           50.4388    11.1799   -13.2679 H             1 RES     
    7210 C           49.4111    10.2736   -14.9414 C             1 RES     
    7211 H           48.8473    11.1752   -15.1806 H             1 RES     
    7212 H           48.7921     9.3965   -15.1303 H             1 RES     
    7213 C           50.6736    10.2095   -15.8209 C             1 RES     
    7214 H           51.2374     9.3079   -15.5817 H             1 RES     
    7215 H           51.2926    11.0866   -15.6320 H             1 RES     
    7216 C           50.2649    10.1802   -17.3054 C             1 RES     
    7217 H           49.7011    11.0819   -17.5446 H             1 RES     
    7218 H           49.6459     9.3032   -17.4944 H             1 RES     
    7219 C           51.5274    10.1162   -18.1850 C             1 RES     
    7220 H           52.0912     9.2145   -17.9457 H             1 RES     
    7221 H           52.1464    10.9933   -17.9960 H             1 RES     
    7222 C           51.1188    10.0869   -19.6695 C             1 RES     
    7223 H           50.5549    10.9885   -19.9087 H             1 RES     
    7224 H           50.4998     9.2098   -19.8584 H             1 RES     
    7225 O           43.8178    10.9545     3.0000 O             1 RES     
    7226 H           43.8682    10.0479     3.3118 H             1 RES     
    7227 C           24.9866    38.5120   -20.5091 C             1 RES     
    7228 H           24.8822    39.5764   -20.5393 H             1 RES     
    7229 H           25.2809    38.1546   -21.4739 H             1 RES     
    7230 H           25.7319    38.2467   -19.7877 H             1 RES     
    7231 C           16.0549    38.2641     1.6071 C             1 RES     
    7232 H           15.3800    39.0858     1.3678 H             1 RES     
    7233 H           15.5537    37.3148     1.4181 H             1 RES     
    7234 C           17.3152    38.3627     0.7275 C             1 RES     
    7235 H           17.9901    37.5409     0.9667 H             1 RES     
    7236 H           17.8164    39.3120     0.9165 H             1 RES     
    7237 C           16.9137    38.2812    -0.7570 C             1 RES     
    7238 H           16.2387    39.1029    -0.9962 H             1 RES     
    7239 H           16.4124    37.3319    -0.9459 H             1 RES     
    7240 C           18.1739    38.3798    -1.6365 C             1 RES     
    7241 H           18.8489    37.5580    -1.3973 H             1 RES     
    7242 H           18.6752    39.3291    -1.4476 H             1 RES     
    7243 C           17.7724    38.2982    -3.1210 C             1 RES     
    7244 H           17.0975    39.1200    -3.3603 H             1 RES     
    7245 H           17.2712    37.3489    -3.3100 H             1 RES     
    7246 C           19.0327    38.3969    -4.0006 C             1 RES     
    7247 H           19.7076    37.5751    -3.7614 H             1 RES     
    7248 H           19.5339    39.3462    -3.8117 H             1 RES     
    7249 C           18.6311    38.3153    -5.4851 C             1 RES     
    7250 H           17.9562    39.1371    -5.7243 H             1 RES     
    7251 H           18.1299    37.3660    -5.6740 H             1 RES     
    7252 C           19.8914    38.4139    -6.3647 C             1 RES     
    7253 H           20.5663    37.5922    -6.1254 H             1 RES     
    7254 H           20.3926    39.3632    -6.1757 H             1 RES     
    7255 C           19.4899    38.3324    -7.8492 C             1 RES     
    7256 H           18.8149    39.1542    -8.0884 H             1 RES     
    7257 H           18.9886    37.3831    -8.0381 H             1 RES     
    7258 C           20.7501    38.4310    -8.7287 C             1 RES     
    7259 H           21.4251    37.6093    -8.4895 H             1 RES     
    7260 H           21.2514    39.3803    -8.5398 H             1 RES     
    7261 C           20.3486    38.3495   -10.2132 C             1 RES     
    7262 H           19.6737    39.1713   -10.4525 H             1 RES     
    7263 H           19.8474    37.4002   -10.4022 H             1 RES     
    7264 C           21.6089    38.4481   -11.0928 C             1 RES     
    7265 H           22.2838    37.6263   -10.8536 H             1 RES     
    7266 H           22.1101    39.3974   -10.9039 H             1 RES     
    7267 C           21.2074    38.3666   -12.5773 C             1 RES     
    7268 H           20.5324    39.1884   -12.8165 H             1 RES     
    7269 H           20.7061    37.4173   -12.7662 H             1 RES     
    7270 C           22.4676    38.4652   -13.4569 C             1 RES     
    7271 H           23.1426    37.6434   -13.2176 H             1 RES     
    7272 H           22.9689    39.4145   -13.2679 H             1 RES     
    7273 C           22.0661    38.3837   -14.9414 C             1 RES     
    7274 H           21.3912    39.2054   -15.1806 H             1 RES     
    7275 H           21.5649    37.4344   -15.1303 H             1 RES     
    7276 C           23.3264    38.4823   -15.8209 C             1 RES     
    7277 H           24.0013    37.6605   -15.5817 H             1 RES     
    7278 H           23.8276    39.4316   -15.6320 H             1 RES     
    7279 C           22.9248    38.4008   -17.3054 C             1 RES     
    7280 H           22.2499    39.2225   -17.5446 H             1 RES     
    7281 H           22.4236    37.4515   -17.4944 H             1 RES     
    7282 C           24.1851    38.4994   -18.1850 C             1 RES     
    7283 H           24.8600    37.6776   -17.9457 H             1 RES     
    7284 H           24.6863    39.4487   -17.9960 H             1 RES     
    7285 C           23.7836    38.4178   -19.6695 C             1 RES     
    7286 H           23.1086    39.2396   -19.9087 H             1 RES     
    7287 H           23.2823    37.4685   -19.8584 H             1 RES     
    7288 O           16.4317    38.3406     3.0000 O             1 RES     
    7289 H           16.5981    37.4480     3.3118 H             1 RES     
    7290 C           30.4217    50.1599   -20.5091 C             1 RES     
    7291 H           30.2313    51.2124   -20.5393 H             1 RES     
    7292 H           30.7440    49.8276   -21.4739 H             1 RES     
    7293 H           31.1861    49.9560   -19.7877 H             1 RES     
    7294 C           21.5396    49.1882     1.6071 C             1 RES     
    7295 H           20.8002    49.9525     1.3678 H             1 RES     
    7296 H           21.1170    48.2014     1.4181 H             1 RES     
    7297 C           22.7877    49.3888     0.7275 C             1 RES     
    7298 H           23.5271    48.6244     0.9667 H             1 RES     
    7299 H           23.2103    50.3756     0.9165 H             1 RES     
    7300 C           22.3941    49.2749    -0.7570 C             1 RES     
    7301 H           21.6547    50.0392    -0.9962 H             1 RES     
    7302 H           21.9716    48.2881    -0.9459 H             1 RES     
    7303 C           23.6422    49.4755    -1.6365 C             1 RES     
    7304 H           24.3816    48.7111    -1.3973 H             1 RES     
    7305 H           24.0648    50.4623    -1.4476 H             1 RES     
    7306 C           23.2487    49.3616    -3.1210 C             1 RES     
    7307 H           22.5093    50.1259    -3.3603 H             1 RES     
    7308 H           22.8261    48.3748    -3.3100 H             1 RES     
    7309 C           24.4967    49.5622    -4.0006 C             1 RES     
    7310 H           25.2361    48.7978    -3.7614 H             1 RES     
    7311 H           24.9193    50.5490    -3.8117 H             1 RES     
    7312 C           24.1032    49.4483    -5.4851 C             1 RES     
    7313 H           23.3638    50.2126    -5.7243 H             1 RES     
    7314 H           23.6806    48.4615    -5.6740 H             1 RES     
    7315 C           25.3513    49.6489    -6.3647 C             1 RES     
    7316 H           26.0907    48.8845    -6.1254 H             1 RES     
    7317 H           25.7738    50.6357    -6.1757 H             1 RES     
    7318 C           24.9577    49.5350    -7.8492 C             1 RES     
    7319 H           24.2183    50.2993    -8.0884 H             1 RES     
    7320 H           24.5351    48.5482    -8.0381 H             1 RES     
    7321 C           26.2058    49.7356    -8.7287 C             1 RES     
    7322 H           26.9452    48.9713    -8.4895 H             1 RES     
    7323 H           26.6284    50.7224    -8.5398 H             1 RES     
    7324 C           25.8122    49.6217   -10.2132 C             1 RES     
    7325 H           25.0728    50.3860   -10.4525 H             1 RES     
    7326 H           25.3896    48.6349   -10.4022 H             1 RES     
    7327 C           27.0603    49.8223   -11.0928 C             1 RES     
    7328 H           27.7997    49.0580   -10.8536 H             1 RES     
    7329 H           27.4829    50.8091   -10.9039 H             1 RES     
    7330 C           26.6667    49.7084   -12.5773 C             1 RES     
    7331 H           25.9273    50.4727   -12.8165 H             1 RES     
    7332 H           26.2442    48.7216   -12.7662 H             1 RES     
    7333 C           27.9148    49.9090   -13.4569 C             1 RES     
    7334 H           28.6542    49.1447   -13.2176 H             1 RES     
    7335 H           28.3374    50.8958   -13.2679 H             1 RES     
    7336 C           27.5213    49.7951   -14.9414 C             1 RES     
    7337 H           26.7819    50.5594   -15.1806 H             1 RES     
    7338 H           27.0987    48.8083   -15.1303 H             1 RES     
    7339 C           28.7694    49.9957   -15.8209 C             1 RES     
    7340 H           29.5088    49.2314   -15.5817 H             1 RES     
    7341 H           29.1919    50.9825   -15.6320 H             1 RES     
    7342 C           28.3758    49.8818   -17.3054 C             1 RES     
    7343 H           27.6364    50.6461   -17.5446 H             1 RES     
    7344 H           27.9532    48.8950   -17.4944 H             1 RES     
    7345 C           29.6239    50.0824   -18.1850 C             1 RES     
    7346 H           30.3633    49.3181   -17.9457 H             1 RES     
    7347 H           30.0465    51.0692   -17.9960 H             1 RES     
    7348 C           29.2303    49.9685   -19.6695 C             1 RES     
    7349 H           28.4909    50.7328   -19.9087 H             1 RES     
    7350 H           28.8077    48.9817   -19.8584 H             1 RES     
    7351 O           21.9089    49.2950     3.0000 O             1 RES     
    7352 H           22.1472    48.4189     3.3118 H             1 RES     
    7353 C           13.9996     0.7651   -20.5091 C             1 RES     
    7354 H           13.8215     1.8197   -20.5393 H             1 RES     
    7355 H           14.3180     0.4290   -21.4739 H             1 RES     
    7356 H           14.7615     0.5522   -19.7877 H             1 RES     
    7357 C            5.1067    -0.1025     1.6071 C             1 RES     
    7358 H            4.3763     0.6704     1.3678 H             1 RES     
    7359 H            4.6726    -1.0843     1.4181 H             1 RES     
    7360 C            6.3571     0.0834     0.7275 C             1 RES     
    7361 H            7.0875    -0.6895     0.9667 H             1 RES     
    7362 H            6.7912     1.0652     0.9165 H             1 RES     
    7363 C            5.9622    -0.0258    -0.7570 C             1 RES     
    7364 H            5.2318     0.7471    -0.9962 H             1 RES     
    7365 H            5.5281    -1.0076    -0.9459 H             1 RES     
    7366 C            7.2125     0.1601    -1.6365 C             1 RES     
    7367 H            7.9429    -0.6128    -1.3973 H             1 RES     
    7368 H            7.6467     1.1419    -1.4476 H             1 RES     
    7369 C            6.8177     0.0509    -3.1210 C             1 RES     
    7370 H            6.0873     0.8238    -3.3603 H             1 RES     
    7371 H            6.3836    -0.9309    -3.3100 H             1 RES     
    7372 C            8.0680     0.2368    -4.0006 C             1 RES     
    7373 H            8.7984    -0.5361    -3.7614 H             1 RES     
    7374 H            8.5021     1.2186    -3.8117 H             1 RES     
    7375 C            7.6731     0.1276    -5.4851 C             1 RES     
    7376 H            6.9428     0.9005    -5.7243 H             1 RES     
    7377 H            7.2390    -0.8543    -5.6740 H             1 RES     
    7378 C            8.9235     0.3135    -6.3647 C             1 RES     
    7379 H            9.6539    -0.4595    -6.1254 H             1 RES     
    7380 H            9.3576     1.2953    -6.1757 H             1 RES     
    7381 C            8.5286     0.2042    -7.8492 C             1 RES     
    7382 H            7.7982     0.9772    -8.0884 H             1 RES     
    7383 H            8.0945    -0.7776    -8.0381 H             1 RES     
    7384 C            9.7790     0.3901    -8.7287 C             1 RES     
    7385 H           10.5094    -0.3828    -8.4895 H             1 RES     
    7386 H           10.2131     1.3719    -8.5398 H             1 RES     
    7387 C            9.3841     0.2809   -10.2132 C             1 RES     
    7388 H            8.6537     1.0538   -10.4525 H             1 RES     
    7389 H            8.9500    -0.7009   -10.4022 H             1 RES     
    7390 C           10.6345     0.4668   -11.0928 C             1 RES     
    7391 H           11.3648    -0.3061   -10.8536 H             1 RES     
    7392 H           11.0686     1.4486   -10.9039 H             1 RES     
    7393 C           10.2396     0.3576   -12.5773 C             1 RES     
    7394 H            9.5092     1.1305   -12.8165 H             1 RES     
    7395 H            9.8055    -0.6242   -12.7662 H             1 RES     
    7396 C           11.4899     0.5435   -13.4569 C             1 RES     
    7397 H           12.2203    -0.2294   -13.2176 H             1 RES     
    7398 H           11.9241     1.5253   -13.2679 H             1 RES     
    7399 C           11.0951     0.4343   -14.9414 C             1 RES     
    7400 H           10.3647     1.2072   -15.1806 H             1 RES     
    7401 H           10.6610    -0.5475   -15.1303 H             1 RES     
    7402 C           12.3454     0.6202   -15.8209 C             1 RES     
    7403 H           13.0758    -0.1527   -15.5817 H             1 RES     
    7404 H           12.7795     1.6020   -15.6320 H             1 RES     
    7405 C           11.9505     0.5109   -17.3054 C             1 RES     
    7406 H           11.2202     1.2839   -17.5446 H             1 RES     
    7407 H           11.5164    -0.4709   -17.4944 H             1 RES     
    7408 C           13.2009     0.6969   -18.1850 C             1 RES     
    7409 H           13.9313    -0.0761   -17.9457 H             1 RES     
    7410 H           13.6350     1.6787   -17.9960 H             1 RES     
    7411 C           12.8060     0.5876   -19.6695 C             1 RES     
    7412 H           12.0756     1.3605   -19.9087 H             1 RES     
    7413 H           12.3719    -0.3942   -19.8584 H             1 RES     
    7414 O            5.4772     0.0000     3.0000 O             1 RES     
    7415 H            5.7052    -0.8789     3.3118 H             1 RES     
    7416 C           30.3613    12.2859   -20.5091 C             1 RES     
    7417 H           30.1133    13.3263   -20.5393 H             1 RES     
    7418 H           30.7014    11.9718   -21.4739 H             1 RES     
    7419 H           31.1358    12.1243   -19.7877 H             1 RES     
    7420 C           21.5460    10.8275     1.6071 C             1 RES     
    7421 H           20.7658    11.5500     1.3678 H             1 RES     
    7422 H           21.1783     9.8189     1.4181 H             1 RES     
    7423 C           22.7812    11.0963     0.7275 C             1 RES     
    7424 H           23.5615    10.3738     0.9667 H             1 RES     
    7425 H           23.1489    12.1049     0.9165 H             1 RES     
    7426 C           22.3945    10.9610    -0.7570 C             1 RES     
    7427 H           21.6142    11.6835    -0.9962 H             1 RES     
    7428 H           22.0268     9.9525    -0.9459 H             1 RES     
    7429 C           23.6297    11.2299    -1.6365 C             1 RES     
    7430 H           24.4100    10.5073    -1.3973 H             1 RES     
    7431 H           23.9974    12.2384    -1.4476 H             1 RES     
    7432 C           23.2430    11.0946    -3.1210 C             1 RES     
    7433 H           22.4627    11.8171    -3.3603 H             1 RES     
    7434 H           22.8753    10.0860    -3.3100 H             1 RES     
    7435 C           24.4782    11.3634    -4.0006 C             1 RES     
    7436 H           25.2584    10.6409    -3.7614 H             1 RES     
    7437 H           24.8459    12.3720    -3.8117 H             1 RES     
    7438 C           24.0914    11.2281    -5.4851 C             1 RES     
    7439 H           23.3112    11.9506    -5.7243 H             1 RES     
    7440 H           23.7237    10.2195    -5.6740 H             1 RES     
    7441 C           25.3266    11.4969    -6.3647 C             1 RES     
    7442 H           26.1069    10.7744    -6.1254 H             1 RES     
    7443 H           25.6943    12.5055    -6.1757 H             1 RES     
    7444 C           24.9399    11.3616    -7.8492 C             1 RES     
    7445 H           24.1596    12.0841    -8.0884 H             1 RES     
    7446 H           24.5722    10.3531    -8.0381 H             1 RES     
    7447 C           26.1751    11.6305    -8.7287 C             1 RES     
    7448 H           26.9554    10.9079    -8.4895 H             1 RES     
    7449 H           26.5428    12.6390    -8.5398 H             1 RES     
    7450 C           25.7884    11.4952   -10.2132 C             1 RES     
    7451 H           25.0081    12.2177   -10.4525 H             1 RES     
    7452 H           25.4207    10.4866   -10.4022 H             1 RES     
    7453 C           27.0236    11.7640   -11.0928 C             1 RES     
    7454 H           27.8038    11.0415   -10.8536 H             1 RES     
    7455 H           27.3913    12.7725   -10.9039 H             1 RES     
    7456 C           26.6368    11.6287   -12.5773 C             1 RES     
    7457 H           25.8566    12.3512   -12.8165 H             1 RES     
    7458 H           26.2691    10.6201   -12.7662 H             1 RES     
    7459 C           27.8720    11.8975   -13.4569 C             1 RES     
    7460 H           28.6523    11.1750   -13.2176 H             1 RES     
    7461 H           28.2397    12.9061   -13.2679 H             1 RES     
    7462 C           27.4853    11.7622   -14.9414 C             1 RES     
    7463 H           26.7050    12.4847   -15.1806 H             1 RES     
    7464 H           27.1176    10.7536   -15.1303 H             1 RES     
    7465 C           28.7205    12.0310   -15.8209 C             1 RES     
    7466 H           29.5008    11.3085   -15.5817 H             1 RES     
    7467 H           29.0882    13.0396   -15.6320 H             1 RES     
    7468 C           28.3338    11.8957   -17.3054 C             1 RES     
    7469 H           27.5535    12.6183   -17.5446 H             1 RES     
    7470 H           27.9661    10.8872   -17.4944 H             1 RES     
    7471 C           29.5690    12.1646   -18.1850 C             1 RES     
    7472 H           30.3492    11.4421   -17.9457 H             1 RES     
    7473 H           29.9367    13.1731   -17.9960 H             1 RES     
    7474 C           29.1822    12.0293   -19.6695 C             1 RES     
    7475 H           28.4020    12.7518   -19.9087 H             1 RES     
    7476 H           28.8145    11.0207   -19.8584 H             1 RES     
    7477 O           21.9089    10.9545     3.0000 O             1 RES     
    7478 H           22.1950    10.0927     3.3118 H             1 RES     
    7479 C           35.8752    37.2679   -20.5091 C             1 RES     
    7480 H           35.9265    38.3362   -20.5393 H             1 RES     
    7481 H           36.1145    36.8715   -21.4739 H             1 RES     
    7482 H           36.5742    36.8972   -19.7877 H             1 RES     
    7483 C           27.0023    38.3196     1.6071 C             1 RES     
    7484 H           26.4538    39.2307     1.3678 H             1 RES     
    7485 H           26.3685    37.4531     1.4181 H             1 RES     
    7486 C           28.2635    38.2342     0.7275 C             1 RES     
    7487 H           28.8119    37.3231     0.9667 H             1 RES     
    7488 H           28.8973    39.1006     0.9165 H             1 RES     
    7489 C           27.8544    38.2118    -0.7570 C             1 RES     
    7490 H           27.3059    39.1229    -0.9962 H             1 RES     
    7491 H           27.2206    37.3453    -0.9459 H             1 RES     
    7492 C           29.1156    38.1264    -1.6365 C             1 RES     
    7493 H           29.6641    37.2153    -1.3973 H             1 RES     
    7494 H           29.7494    38.9928    -1.4476 H             1 RES     
    7495 C           28.7065    38.1040    -3.1210 C             1 RES     
    7496 H           28.1580    39.0151    -3.3603 H             1 RES     
    7497 H           28.0727    37.2376    -3.3100 H             1 RES     
    7498 C           29.9677    38.0186    -4.0006 C             1 RES     
    7499 H           30.5162    37.1075    -3.7614 H             1 RES     
    7500 H           30.6015    38.8850    -3.8117 H             1 RES     
    7501 C           29.5586    37.9962    -5.4851 C             1 RES     
    7502 H           29.0102    38.9073    -5.7243 H             1 RES     
    7503 H           28.9248    37.1298    -5.6740 H             1 RES     
    7504 C           30.8198    37.9108    -6.3647 C             1 RES     
    7505 H           31.3683    36.9997    -6.1254 H             1 RES     
    7506 H           31.4536    38.7772    -6.1757 H             1 RES     
    7507 C           30.4107    37.8884    -7.8492 C             1 RES     
    7508 H           29.8623    38.7995    -8.0884 H             1 RES     
    7509 H           29.7770    37.0220    -8.0381 H             1 RES     
    7510 C           31.6720    37.8030    -8.7287 C             1 RES     
    7511 H           32.2204    36.8919    -8.4895 H             1 RES     
    7512 H           32.3057    38.6694    -8.5398 H             1 RES     
    7513 C           31.2629    37.7806   -10.2132 C             1 RES     
    7514 H           30.7144    38.6917   -10.4525 H             1 RES     
    7515 H           30.6291    36.9142   -10.4022 H             1 RES     
    7516 C           32.5241    37.6952   -11.0928 C             1 RES     
    7517 H           33.0725    36.7841   -10.8536 H             1 RES     
    7518 H           33.1579    38.5616   -10.9039 H             1 RES     
    7519 C           32.1150    37.6728   -12.5773 C             1 RES     
    7520 H           31.5665    38.5839   -12.8165 H             1 RES     
    7521 H           31.4812    36.8064   -12.7662 H             1 RES     
    7522 C           33.3762    37.5874   -13.4569 C             1 RES     
    7523 H           33.9246    36.6763   -13.2176 H             1 RES     
    7524 H           34.0100    38.4538   -13.2679 H             1 RES     
    7525 C           32.9671    37.5650   -14.9414 C             1 RES     
    7526 H           32.4186    38.4761   -15.1806 H             1 RES     
    7527 H           32.3333    36.6986   -15.1303 H             1 RES     
    7528 C           34.2283    37.4796   -15.8209 C             1 RES     
    7529 H           34.7768    36.5685   -15.5817 H             1 RES     
    7530 H           34.8621    38.3460   -15.6320 H             1 RES     
    7531 C           33.8192    37.4572   -17.3054 C             1 RES     
    7532 H           33.2708    38.3683   -17.5446 H             1 RES     
    7533 H           33.1854    36.5908   -17.4944 H             1 RES     
    7534 C           35.0804    37.3718   -18.1850 C             1 RES     
    7535 H           35.6289    36.4607   -17.9457 H             1 RES     
    7536 H           35.7142    38.2382   -17.9960 H             1 RES     
    7537 C           34.6713    37.3494   -19.6695 C             1 RES     
    7538 H           34.1229    38.2605   -19.9087 H             1 RES     
    7539 H           34.0375    36.4830   -19.8584 H             1 RES     
    7540 O           27.3861    38.3406     3.0000 O             1 RES     
    7541 H           27.4212    37.4333     3.3118 H             1 RES     
    7542 C            8.5503    -0.3275   -20.5091 C             1 RES     
    7543 H            8.5081     0.7412   -20.5393 H             1 RES     
    7544 H            8.8233    -0.7015   -21.4739 H             1 RES     
    7545 H            9.2790    -0.6358   -19.7877 H             1 RES     
    7546 C           -0.3806    -0.0544     1.6071 C             1 RES     
    7547 H           -1.0065     0.8053     1.3678 H             1 RES     
    7548 H           -0.9363    -0.9729     1.4181 H             1 RES     
    7549 C            0.8833    -0.0294     0.7275 C             1 RES     
    7550 H            1.5092    -0.8891     0.9667 H             1 RES     
    7551 H            1.4390     0.8890     0.9165 H             1 RES     
    7552 C            0.4777    -0.0874    -0.7570 C             1 RES     
    7553 H           -0.1482     0.7723    -0.9962 H             1 RES     
    7554 H           -0.0780    -1.0059    -0.9459 H             1 RES     
    7555 C            1.7416    -0.0624    -1.6365 C             1 RES     
    7556 H            2.3675    -0.9221    -1.3973 H             1 RES     
    7557 H            2.2973     0.8560    -1.4476 H             1 RES     
    7558 C            1.3360    -0.1204    -3.1210 C             1 RES     
    7559 H            0.7101     0.7393    -3.3603 H             1 RES     
    7560 H            0.7803    -1.0389    -3.3100 H             1 RES     
    7561 C            2.5998    -0.0954    -4.0006 C             1 RES     
    7562 H            3.2257    -0.9551    -3.7614 H             1 RES     
    7563 H            3.1556     0.8231    -3.8117 H             1 RES     
    7564 C            2.1943    -0.1534    -5.4851 C             1 RES     
    7565 H            1.5684     0.7063    -5.7243 H             1 RES     
    7566 H            1.6385    -1.0719    -5.6740 H             1 RES     
    7567 C            3.4581    -0.1284    -6.3647 C             1 RES     
    7568 H            4.0840    -0.9881    -6.1254 H             1 RES     
    7569 H            4.0138     0.7901    -6.1757 H             1 RES     
    7570 C            3.0525    -0.1864    -7.8492 C             1 RES     
    7571 H            2.4266     0.6733    -8.0884 H             1 RES     
    7572 H            2.4968    -1.1049    -8.0381 H             1 RES     
    7573 C            4.3164    -0.1614    -8.7287 C             1 RES     
    7574 H            4.9423    -1.0211    -8.4895 H             1 RES     
    7575 H            4.8721     0.7571    -8.5398 H             1 RES     
    7576 C            3.9108    -0.2194   -10.2132 C             1 RES     
    7577 H            3.2849     0.6403   -10.4525 H             1 RES     
    7578 H            3.3551    -1.1379   -10.4022 H             1 RES     
    7579 C            5.1747    -0.1944   -11.0928 C             1 RES     
    7580 H            5.8006    -1.0541   -10.8536 H             1 RES     
    7581 H            5.7304     0.7241   -10.9039 H             1 RES     
    7582 C            4.7691    -0.2524   -12.5773 C             1 RES     
    7583 H            4.1432     0.6073   -12.8165 H             1 RES     
    7584 H            4.2134    -1.1709   -12.7662 H             1 RES     
    7585 C            6.0329    -0.2274   -13.4569 C             1 RES     
    7586 H            6.6588    -1.0871   -13.2176 H             1 RES     
    7587 H            6.5887     0.6911   -13.2679 H             1 RES     
    7588 C            5.6274    -0.2854   -14.9414 C             1 RES     
    7589 H            5.0015     0.5743   -15.1806 H             1 RES     
    7590 H            5.0716    -1.2039   -15.1303 H             1 RES     
    7591 C            6.8912    -0.2604   -15.8209 C             1 RES     
    7592 H            7.5171    -1.1201   -15.5817 H             1 RES     
    7593 H            7.4469     0.6581   -15.6320 H             1 RES     
    7594 C            6.4856    -0.3184   -17.3054 C             1 RES     
    7595 H            5.8597     0.5413   -17.5446 H             1 RES     
    7596 H            5.9299    -1.2369   -17.4944 H             1 RES     
    7597 C            7.7495    -0.2934   -18.1850 C             1 RES     
    7598 H            8.3754    -1.1531   -17.9457 H             1 RES     
    7599 H            8.3052     0.6251   -17.9960 H             1 RES     
    7600 C            7.3439    -0.3514   -19.6695 C             1 RES     
    7601 H            6.7180     0.5083   -19.9087 H             1 RES     
    7602 H            6.7882    -1.2699   -19.8584 H             1 RES     
    7603 O            0.0000     0.0000     3.0000 O             1 RES     
    7604 H            0.1141    -0.9008     3.3118 H             1 RES     
    7605 C           52.3527    26.7772   -20.5091 C             1 RES     
    7606 H           52.3457    27.8467   -20.5393 H             1 RES     
    7607 H           52.6132    26.3944   -21.4739 H             1 RES     
    7608 H           53.0708    26.4451   -19.7877 H             1 RES     
    7609 C           43.4357    27.3443     1.6071 C             1 RES     
    7610 H           42.8384    28.2241     1.3678 H             1 RES     
    7611 H           42.8500    26.4446     1.4181 H             1 RES     
    7612 C           44.6997    27.3276     0.7275 C             1 RES     
    7613 H           45.2969    26.4478     0.9667 H             1 RES     
    7614 H           45.2853    28.2273     0.9165 H             1 RES     
    7615 C           44.2924    27.2830    -0.7570 C             1 RES     
    7616 H           43.6951    28.1629    -0.9962 H             1 RES     
    7617 H           43.7067    26.3834    -0.9459 H             1 RES     
    7618 C           45.5564    27.2664    -1.6365 C             1 RES     
    7619 H           46.1536    26.3865    -1.3973 H             1 RES     
    7620 H           46.1420    28.1660    -1.4476 H             1 RES     
    7621 C           45.1491    27.2218    -3.1210 C             1 RES     
    7622 H           44.5519    28.1016    -3.3603 H             1 RES     
    7623 H           44.5634    26.3221    -3.3100 H             1 RES     
    7624 C           46.4131    27.2051    -4.0006 C             1 RES     
    7625 H           47.0103    26.3253    -3.7614 H             1 RES     
    7626 H           46.9988    28.1048    -3.8117 H             1 RES     
    7627 C           46.0058    27.1605    -5.4851 C             1 RES     
    7628 H           45.4086    28.0404    -5.7243 H             1 RES     
    7629 H           45.4202    26.2609    -5.6740 H             1 RES     
    7630 C           47.2698    27.1439    -6.3647 C             1 RES     
    7631 H           47.8671    26.2640    -6.1254 H             1 RES     
    7632 H           47.8555    28.0435    -6.1757 H             1 RES     
    7633 C           46.8625    27.0993    -7.8492 C             1 RES     
    7634 H           46.2653    27.9791    -8.0884 H             1 RES     
    7635 H           46.2769    26.1996    -8.0381 H             1 RES     
    7636 C           48.1265    27.0826    -8.7287 C             1 RES     
    7637 H           48.7238    26.2028    -8.4895 H             1 RES     
    7638 H           48.7122    27.9823    -8.5398 H             1 RES     
    7639 C           47.7193    27.0380   -10.2132 C             1 RES     
    7640 H           47.1220    27.9179   -10.4525 H             1 RES     
    7641 H           47.1336    26.1384   -10.4022 H             1 RES     
    7642 C           48.9833    27.0214   -11.0928 C             1 RES     
    7643 H           49.5805    26.1415   -10.8536 H             1 RES     
    7644 H           49.5689    27.9211   -10.9039 H             1 RES     
    7645 C           48.5760    26.9768   -12.5773 C             1 RES     
    7646 H           47.9787    27.8567   -12.8165 H             1 RES     
    7647 H           47.9903    26.0771   -12.7662 H             1 RES     
    7648 C           49.8400    26.9601   -13.4569 C             1 RES     
    7649 H           50.4372    26.0803   -13.2176 H             1 RES     
    7650 H           50.4257    27.8598   -13.2679 H             1 RES     
    7651 C           49.4327    26.9155   -14.9414 C             1 RES     
    7652 H           48.8355    27.7954   -15.1806 H             1 RES     
    7653 H           48.8470    26.0159   -15.1303 H             1 RES     
    7654 C           50.6967    26.8989   -15.8209 C             1 RES     
    7655 H           51.2940    26.0190   -15.5817 H             1 RES     
    7656 H           51.2824    27.7986   -15.6320 H             1 RES     
    7657 C           50.2894    26.8543   -17.3054 C             1 RES     
    7658 H           49.6922    27.7342   -17.5446 H             1 RES     
    7659 H           49.7038    25.9546   -17.4944 H             1 RES     
    7660 C           51.5534    26.8376   -18.1850 C             1 RES     
    7661 H           52.1507    25.9578   -17.9457 H             1 RES     
    7662 H           52.1391    27.7373   -17.9960 H             1 RES     
    7663 C           51.1462    26.7930   -19.6695 C             1 RES     
    7664 H           50.5489    27.6729   -19.9087 H             1 RES     
    7665 H           50.5605    25.8934   -19.8584 H             1 RES     
    7666 O           43.8178    27.3861     3.0000 O             1 RES     
    7667 H           43.9022    26.4821     3.3118 H             1 RES     
    7668 C           52.3741    49.3698   -20.5091 C             1 RES     
    7669 H           52.2817    50.4354   -20.5393 H             1 RES     
    7670 H           52.6643    49.0091   -21.4739 H             1 RES     
    7671 H           53.1164    49.0961   -19.7877 H             1 RES     
    7672 C           43.4402    49.2228     1.6071 C             1 RES     
    7673 H           42.7746    50.0521     1.3678 H             1 RES     
    7674 H           42.9283    48.2792     1.4181 H             1 RES     
    7675 C           44.7015    49.3072     0.7275 C             1 RES     
    7676 H           45.3671    48.4778     0.9667 H             1 RES     
    7677 H           45.2134    50.2507     0.9165 H             1 RES     
    7678 C           44.2991    49.2302    -0.7570 C             1 RES     
    7679 H           43.6335    50.0595    -0.9962 H             1 RES     
    7680 H           43.7872    48.2866    -0.9459 H             1 RES     
    7681 C           45.5604    49.3145    -1.6365 C             1 RES     
    7682 H           46.2260    48.4852    -1.3973 H             1 RES     
    7683 H           46.0723    50.2581    -1.4476 H             1 RES     
    7684 C           45.1580    49.2376    -3.1210 C             1 RES     
    7685 H           44.4924    50.0669    -3.3603 H             1 RES     
    7686 H           44.6460    48.2940    -3.3100 H             1 RES     
    7687 C           46.4193    49.3219    -4.0006 C             1 RES     
    7688 H           47.0849    48.4926    -3.7614 H             1 RES     
    7689 H           46.9312    50.2655    -3.8117 H             1 RES     
    7690 C           46.0169    49.2449    -5.4851 C             1 RES     
    7691 H           45.3512    50.0743    -5.7243 H             1 RES     
    7692 H           45.5049    48.3014    -5.6740 H             1 RES     
    7693 C           47.2781    49.3293    -6.3647 C             1 RES     
    7694 H           47.9438    48.5000    -6.1254 H             1 RES     
    7695 H           47.7901    50.2729    -6.1757 H             1 RES     
    7696 C           46.8757    49.2523    -7.8492 C             1 RES     
    7697 H           46.2101    50.0817    -8.0884 H             1 RES     
    7698 H           46.3638    48.3087    -8.0381 H             1 RES     
    7699 C           48.1370    49.3367    -8.7287 C             1 RES     
    7700 H           48.8026    48.5074    -8.4895 H             1 RES     
    7701 H           48.6490    50.2803    -8.5398 H             1 RES     
    7702 C           47.7346    49.2597   -10.2132 C             1 RES     
    7703 H           47.0690    50.0891   -10.4525 H             1 RES     
    7704 H           47.2227    48.3161   -10.4022 H             1 RES     
    7705 C           48.9959    49.3441   -11.0928 C             1 RES     
    7706 H           49.6615    48.5147   -10.8536 H             1 RES     
    7707 H           49.5078    50.2877   -10.9039 H             1 RES     
    7708 C           48.5935    49.2671   -12.5773 C             1 RES     
    7709 H           47.9279    50.0964   -12.8165 H             1 RES     
    7710 H           48.0816    48.3235   -12.7662 H             1 RES     
    7711 C           49.8548    49.3515   -13.4569 C             1 RES     
    7712 H           50.5204    48.5221   -13.2176 H             1 RES     
    7713 H           50.3667    50.2950   -13.2679 H             1 RES     
    7714 C           49.4524    49.2745   -14.9414 C             1 RES     
    7715 H           48.7867    50.1038   -15.1806 H             1 RES     
    7716 H           48.9404    48.3309   -15.1303 H             1 RES     
    7717 C           50.7137    49.3589   -15.8209 C             1 RES     
    7718 H           51.3793    48.5295   -15.5817 H             1 RES     
    7719 H           51.2256    50.3024   -15.6320 H             1 RES     
    7720 C           50.3112    49.2819   -17.3054 C             1 RES     
    7721 H           49.6456    50.1112   -17.5446 H             1 RES     
    7722 H           49.7993    48.3383   -17.4944 H             1 RES     
    7723 C           51.5725    49.3662   -18.1850 C             1 RES     
    7724 H           52.2382    48.5369   -17.9457 H             1 RES     
    7725 H           52.0845    50.3098   -17.9960 H             1 RES     
    7726 C           51.1701    49.2892   -19.6695 C             1 RES     
    7727 H           50.5045    50.1186   -19.9087 H             1 RES     
    7728 H           50.6582    48.3457   -19.8584 H             1 RES     
    7729 O           43.8178    49.2950     3.0000 O             1 RES     
    7730 H           43.9741    48.4006     3.3118 H             1 RES     
    7731 C           30.4591    22.2406   -20.5091 C             1 RES     
    7732 H           30.3347    23.3029   -20.5393 H             1 RES     
    7733 H           30.7600    21.8887   -21.4739 H             1 RES     
    7734 H           31.2093    21.9893   -19.7877 H             1 RES     
    7735 C           21.5337    21.8253     1.6071 C             1 RES     
    7736 H           20.8434    22.6343     1.3678 H             1 RES     
    7737 H           21.0503    20.8668     1.4181 H             1 RES     
    7738 C           22.7918    21.9476     0.7275 C             1 RES     
    7739 H           23.4821    21.1386     0.9667 H             1 RES     
    7740 H           23.2752    22.9061     0.9165 H             1 RES     
    7741 C           22.3919    21.8585    -0.7570 C             1 RES     
    7742 H           21.7017    22.6675    -0.9962 H             1 RES     
    7743 H           21.9086    20.9000    -0.9459 H             1 RES     
    7744 C           23.6501    21.9807    -1.6365 C             1 RES     
    7745 H           24.3403    21.1718    -1.3973 H             1 RES     
    7746 H           24.1335    22.9393    -1.4476 H             1 RES     
    7747 C           23.2502    21.8917    -3.1210 C             1 RES     
    7748 H           22.5600    22.7007    -3.3603 H             1 RES     
    7749 H           22.7668    20.9332    -3.3100 H             1 RES     
    7750 C           24.5084    22.0139    -4.0006 C             1 RES     
    7751 H           25.1986    21.2049    -3.7614 H             1 RES     
    7752 H           24.9917    22.9724    -3.8117 H             1 RES     
    7753 C           24.1085    21.9249    -5.4851 C             1 RES     
    7754 H           23.4182    22.7338    -5.7243 H             1 RES     
    7755 H           23.6251    20.9663    -5.6740 H             1 RES     
    7756 C           25.3666    22.0471    -6.3647 C             1 RES     
    7757 H           26.0569    21.2381    -6.1254 H             1 RES     
    7758 H           25.8500    23.0056    -6.1757 H             1 RES     
    7759 C           24.9667    21.9580    -7.8492 C             1 RES     
    7760 H           24.2765    22.7670    -8.0884 H             1 RES     
    7761 H           24.4834    20.9995    -8.0381 H             1 RES     
    7762 C           26.2249    22.0803    -8.7287 C             1 RES     
    7763 H           26.9151    21.2713    -8.4895 H             1 RES     
    7764 H           26.7083    23.0388    -8.5398 H             1 RES     
    7765 C           25.8250    21.9912   -10.2132 C             1 RES     
    7766 H           25.1348    22.8002   -10.4525 H             1 RES     
    7767 H           25.3416    21.0327   -10.4022 H             1 RES     
    7768 C           27.0832    22.1134   -11.0928 C             1 RES     
    7769 H           27.7734    21.3044   -10.8536 H             1 RES     
    7770 H           27.5666    23.0719   -10.9039 H             1 RES     
    7771 C           26.6833    22.0244   -12.5773 C             1 RES     
    7772 H           25.9930    22.8334   -12.8165 H             1 RES     
    7773 H           26.1999    21.0659   -12.7662 H             1 RES     
    7774 C           27.9415    22.1466   -13.4569 C             1 RES     
    7775 H           28.6317    21.3376   -13.2176 H             1 RES     
    7776 H           28.4248    23.1051   -13.2679 H             1 RES     
    7777 C           27.5415    22.0576   -14.9414 C             1 RES     
    7778 H           26.8513    22.8665   -15.1806 H             1 RES     
    7779 H           27.0582    21.0990   -15.1303 H             1 RES     
    7780 C           28.7997    22.1798   -15.8209 C             1 RES     
    7781 H           29.4899    21.3708   -15.5817 H             1 RES     
    7782 H           29.2831    23.1383   -15.6320 H             1 RES     
    7783 C           28.3998    22.0907   -17.3054 C             1 RES     
    7784 H           27.7096    22.8997   -17.5446 H             1 RES     
    7785 H           27.9164    21.1322   -17.4944 H             1 RES     
    7786 C           29.6580    22.2129   -18.1850 C             1 RES     
    7787 H           30.3482    21.4040   -17.9457 H             1 RES     
    7788 H           30.1414    23.1715   -17.9960 H             1 RES     
    7789 C           29.2581    22.1239   -19.6695 C             1 RES     
    7790 H           28.5678    22.9329   -19.9087 H             1 RES     
    7791 H           28.7747    21.1654   -19.8584 H             1 RES     
    7792 O           21.9089    21.9089     3.0000 O             1 RES     
    7793 H           22.0920    21.0196     3.3118 H             1 RES     
    7794 C           24.9687    11.5332   -20.5091 C             1 RES     
    7795 H           24.8137    12.5915   -20.5393 H             1 RES     
    7796 H           25.2797    11.1903   -21.4739 H             1 RES     
    7797 H           25.7258    11.3038   -19.7877 H             1 RES     
    7798 C           16.0590    10.8601     1.6071 C             1 RES     
    7799 H           15.3457    11.6488     1.3678 H             1 RES     
    7800 H           15.6036     9.8880     1.4181 H             1 RES     
    7801 C           17.3131    11.0186     0.7275 C             1 RES     
    7802 H           18.0265    10.2300     0.9667 H             1 RES     
    7803 H           17.7686    11.9907     0.9165 H             1 RES     
    7804 C           16.9160    10.9181    -0.7570 C             1 RES     
    7805 H           16.2026    11.7067    -0.9962 H             1 RES     
    7806 H           16.4605     9.9460    -0.9459 H             1 RES     
    7807 C           18.1701    11.0766    -1.6365 C             1 RES     
    7808 H           18.8834    10.2879    -1.3973 H             1 RES     
    7809 H           18.6255    12.0487    -1.4476 H             1 RES     
    7810 C           17.7729    10.9760    -3.1210 C             1 RES     
    7811 H           17.0596    11.7647    -3.3603 H             1 RES     
    7812 H           17.3175    10.0039    -3.3100 H             1 RES     
    7813 C           19.0270    11.1346    -4.0006 C             1 RES     
    7814 H           19.7404    10.3459    -3.7614 H             1 RES     
    7815 H           19.4825    12.1067    -3.8117 H             1 RES     
    7816 C           18.6299    11.0340    -5.4851 C             1 RES     
    7817 H           17.9165    11.8227    -5.7243 H             1 RES     
    7818 H           18.1744    10.0619    -5.6740 H             1 RES     
    7819 C           19.8840    11.1926    -6.3647 C             1 RES     
    7820 H           20.5973    10.4039    -6.1254 H             1 RES     
    7821 H           20.3394    12.1647    -6.1757 H             1 RES     
    7822 C           19.4868    11.0920    -7.8492 C             1 RES     
    7823 H           18.7735    11.8807    -8.0884 H             1 RES     
    7824 H           19.0314    10.1199    -8.0381 H             1 RES     
    7825 C           20.7409    11.2506    -8.7287 C             1 RES     
    7826 H           21.4543    10.4619    -8.4895 H             1 RES     
    7827 H           21.1964    12.2227    -8.5398 H             1 RES     
    7828 C           20.3438    11.1500   -10.2132 C             1 RES     
    7829 H           19.6304    11.9387   -10.4525 H             1 RES     
    7830 H           19.8883    10.1779   -10.4022 H             1 RES     
    7831 C           21.5979    11.3085   -11.0928 C             1 RES     
    7832 H           22.3112    10.5199   -10.8536 H             1 RES     
    7833 H           22.0533    12.2806   -10.9039 H             1 RES     
    7834 C           21.2007    11.2080   -12.5773 C             1 RES     
    7835 H           20.4874    11.9966   -12.8165 H             1 RES     
    7836 H           20.7453    10.2359   -12.7662 H             1 RES     
    7837 C           22.4548    11.3665   -13.4569 C             1 RES     
    7838 H           23.1682    10.5778   -13.2176 H             1 RES     
    7839 H           22.9103    12.3386   -13.2679 H             1 RES     
    7840 C           22.0577    11.2659   -14.9414 C             1 RES     
    7841 H           21.3443    12.0546   -15.1806 H             1 RES     
    7842 H           21.6022    10.2938   -15.1303 H             1 RES     
    7843 C           23.3118    11.4245   -15.8209 C             1 RES     
    7844 H           24.0251    10.6358   -15.5817 H             1 RES     
    7845 H           23.7672    12.3966   -15.6320 H             1 RES     
    7846 C           22.9146    11.3239   -17.3054 C             1 RES     
    7847 H           22.2013    12.1126   -17.5446 H             1 RES     
    7848 H           22.4592    10.3518   -17.4944 H             1 RES     
    7849 C           24.1687    11.4825   -18.1850 C             1 RES     
    7850 H           24.8821    10.6938   -17.9457 H             1 RES     
    7851 H           24.6242    12.4546   -17.9960 H             1 RES     
    7852 C           23.7716    11.3819   -19.6695 C             1 RES     
    7853 H           23.0582    12.1706   -19.9087 H             1 RES     
    7854 H           23.3161    10.4098   -19.8584 H             1 RES     
    7855 O           16.4317    10.9545     3.0000 O             1 RES     
    7856 H           16.6404    10.0708     3.3118 H             1 RES     
    7857 C           41.2019     3.5580   -20.5091 C             1 RES     
    7858 H           41.3602     4.6158   -20.5393 H             1 RES     
    7859 H           41.4002     3.1397   -21.4739 H             1 RES     
    7860 H           41.8602     3.1191   -19.7877 H             1 RES     
    7861 C           32.4793     5.4949     1.6071 C             1 RES     
    7862 H           32.0251     6.4564     1.3678 H             1 RES     
    7863 H           31.7618     4.6964     1.4181 H             1 RES     
    7864 C           33.7256     5.2833     0.7275 C             1 RES     
    7865 H           34.1799     4.3218     0.9667 H             1 RES     
    7866 H           34.4431     6.0818     0.9165 H             1 RES     
    7867 C           33.3163     5.3021    -0.7570 C             1 RES     
    7868 H           32.8621     6.2636    -0.9962 H             1 RES     
    7869 H           32.5988     4.5036    -0.9459 H             1 RES     
    7870 C           34.5626     5.0905    -1.6365 C             1 RES     
    7871 H           35.0169     4.1290    -1.3973 H             1 RES     
    7872 H           35.2801     5.8890    -1.4476 H             1 RES     
    7873 C           34.1533     5.1093    -3.1210 C             1 RES     
    7874 H           33.6991     6.0709    -3.3603 H             1 RES     
    7875 H           33.4358     4.3109    -3.3100 H             1 RES     
    7876 C           35.3996     4.8978    -4.0006 C             1 RES     
    7877 H           35.8539     3.9363    -3.7614 H             1 RES     
    7878 H           36.1171     5.6962    -3.8117 H             1 RES     
    7879 C           34.9903     4.9166    -5.4851 C             1 RES     
    7880 H           34.5361     5.8781    -5.7243 H             1 RES     
    7881 H           34.2728     4.1181    -5.6740 H             1 RES     
    7882 C           36.2366     4.7050    -6.3647 C             1 RES     
    7883 H           36.6909     3.7435    -6.1254 H             1 RES     
    7884 H           36.9541     5.5035    -6.1757 H             1 RES     
    7885 C           35.8273     4.7238    -7.8492 C             1 RES     
    7886 H           35.3731     5.6853    -8.0884 H             1 RES     
    7887 H           35.1098     3.9253    -8.0381 H             1 RES     
    7888 C           37.0736     4.5122    -8.7287 C             1 RES     
    7889 H           37.5279     3.5507    -8.4895 H             1 RES     
    7890 H           37.7911     5.3107    -8.5398 H             1 RES     
    7891 C           36.6643     4.5310   -10.2132 C             1 RES     
    7892 H           36.2101     5.4926   -10.4525 H             1 RES     
    7893 H           35.9468     3.7326   -10.4022 H             1 RES     
    7894 C           37.9106     4.3195   -11.0928 C             1 RES     
    7895 H           38.3649     3.3580   -10.8536 H             1 RES     
    7896 H           38.6281     5.1179   -10.9039 H             1 RES     
    7897 C           37.5013     4.3383   -12.5773 C             1 RES     
    7898 H           37.0471     5.2998   -12.8165 H             1 RES     
    7899 H           36.7838     3.5398   -12.7662 H             1 RES     
    7900 C           38.7476     4.1267   -13.4569 C             1 RES     
    7901 H           39.2019     3.1652   -13.2176 H             1 RES     
    7902 H           39.4651     4.9252   -13.2679 H             1 RES     
    7903 C           38.3383     4.1455   -14.9414 C             1 RES     
    7904 H           37.8841     5.1070   -15.1806 H             1 RES     
    7905 H           37.6208     3.3470   -15.1303 H             1 RES     
    7906 C           39.5846     3.9339   -15.8209 C             1 RES     
    7907 H           40.0389     2.9724   -15.5817 H             1 RES     
    7908 H           40.3021     4.7324   -15.6320 H             1 RES     
    7909 C           39.1753     3.9527   -17.3054 C             1 RES     
    7910 H           38.7211     4.9143   -17.5446 H             1 RES     
    7911 H           38.4578     3.1543   -17.4944 H             1 RES     
    7912 C           40.4216     3.7412   -18.1850 C             1 RES     
    7913 H           40.8759     2.7797   -17.9457 H             1 RES     
    7914 H           41.1391     4.5396   -17.9960 H             1 RES     
    7915 C           40.0123     3.7600   -19.6695 C             1 RES     
    7916 H           39.5581     4.7215   -19.9087 H             1 RES     
    7917 H           39.2948     2.9615   -19.8584 H             1 RES     
    7918 O           32.8634     5.4772     3.0000 O             1 RES     
    7919 H           32.8072     4.5710     3.3118 H             1 RES     
    7920 C           41.4005    32.2868   -20.5091 C             1 RES     
    7921 H           41.3895    33.3563   -20.5393 H             1 RES     
    7922 H           41.6625    31.9051   -21.4739 H             1 RES     
    7923 H           42.1199    31.9575   -19.7877 H             1 RES     
    7924 C           32.4814    32.8200     1.6071 C             1 RES     
    7925 H           31.8808    33.6976     1.3678 H             1 RES     
    7926 H           31.8991    31.9182     1.4181 H             1 RES     
    7927 C           33.7454    32.8082     0.7275 C             1 RES     
    7928 H           34.3460    31.9306     0.9667 H             1 RES     
    7929 H           34.3277    33.7101     0.9165 H             1 RES     
    7930 C           33.3383    32.7621    -0.7570 C             1 RES     
    7931 H           32.7377    33.6396    -0.9962 H             1 RES     
    7932 H           32.7561    31.8602    -0.9459 H             1 RES     
    7933 C           34.6024    32.7502    -1.6365 C             1 RES     
    7934 H           35.2029    31.8726    -1.3973 H             1 RES     
    7935 H           35.1846    33.6521    -1.4476 H             1 RES     
    7936 C           34.1953    32.7041    -3.1210 C             1 RES     
    7937 H           33.5947    33.5817    -3.3603 H             1 RES     
    7938 H           33.6130    31.8022    -3.3100 H             1 RES     
    7939 C           35.4593    32.6922    -4.0006 C             1 RES     
    7940 H           36.0599    31.8146    -3.7614 H             1 RES     
    7941 H           36.0416    33.5941    -3.8117 H             1 RES     
    7942 C           35.0522    32.6461    -5.4851 C             1 RES     
    7943 H           34.4516    33.5237    -5.7243 H             1 RES     
    7944 H           34.4700    31.7442    -5.6740 H             1 RES     
    7945 C           36.3163    32.6342    -6.3647 C             1 RES     
    7946 H           36.9168    31.7566    -6.1254 H             1 RES     
    7947 H           36.8985    33.5361    -6.1757 H             1 RES     
    7948 C           35.9092    32.5881    -7.8492 C             1 RES     
    7949 H           35.3086    33.4657    -8.0884 H             1 RES     
    7950 H           35.3269    31.6862    -8.0381 H             1 RES     
    7951 C           37.1732    32.5762    -8.7287 C             1 RES     
    7952 H           37.7738    31.6986    -8.4895 H             1 RES     
    7953 H           37.7555    33.4781    -8.5398 H             1 RES     
    7954 C           36.7661    32.5301   -10.2132 C             1 RES     
    7955 H           36.1655    33.4077   -10.4525 H             1 RES     
    7956 H           36.1839    31.6282   -10.4022 H             1 RES     
    7957 C           38.0302    32.5182   -11.0928 C             1 RES     
    7958 H           38.6307    31.6407   -10.8536 H             1 RES     
    7959 H           38.6124    33.4201   -10.9039 H             1 RES     
    7960 C           37.6231    32.4721   -12.5773 C             1 RES     
    7961 H           37.0225    33.3497   -12.8165 H             1 RES     
    7962 H           37.0408    31.5702   -12.7662 H             1 RES     
    7963 C           38.8871    32.4603   -13.4569 C             1 RES     
    7964 H           39.4877    31.5827   -13.2176 H             1 RES     
    7965 H           39.4694    33.3621   -13.2679 H             1 RES     
    7966 C           38.4800    32.4141   -14.9414 C             1 RES     
    7967 H           37.8794    33.2917   -15.1806 H             1 RES     
    7968 H           37.8978    31.5122   -15.1303 H             1 RES     
    7969 C           39.7441    32.4023   -15.8209 C             1 RES     
    7970 H           40.3446    31.5247   -15.5817 H             1 RES     
    7971 H           40.3263    33.3041   -15.6320 H             1 RES     
    7972 C           39.3370    32.3561   -17.3054 C             1 RES     
    7973 H           38.7364    33.2337   -17.5446 H             1 RES     
    7974 H           38.7547    31.4542   -17.4944 H             1 RES     
    7975 C           40.6010    32.3443   -18.1850 C             1 RES     
    7976 H           41.2016    31.4667   -17.9457 H             1 RES     
    7977 H           41.1833    33.2462   -17.9960 H             1 RES     
    7978 C           40.1939    32.2981   -19.6695 C             1 RES     
    7979 H           39.5933    33.1757   -19.9087 H             1 RES     
    7980 H           39.6117    31.3962   -19.8584 H             1 RES     
    7981 O           32.8634    32.8634     3.0000 O             1 RES     
    7982 H           32.9512    31.9596     3.3118 H             1 RES     
    7983 C           41.3690    44.7504   -20.5091 C             1 RES     
    7984 H           41.1702    45.8013   -20.5393 H             1 RES     
    7985 H           41.6939    44.4206   -21.4739 H             1 RES     
    7986 H           42.1350    44.5525   -19.7877 H             1 RES     
    7987 C           32.4949    43.7080     1.6071 C             1 RES     
    7988 H           31.7495    44.4665     1.3678 H             1 RES     
    7989 H           32.0802    42.7179     1.4181 H             1 RES     
    7990 C           33.7414    43.9185     0.7275 C             1 RES     
    7991 H           34.4868    43.1601     0.9667 H             1 RES     
    7992 H           34.1561    44.9087     0.9165 H             1 RES     
    7993 C           33.3487    43.8015    -0.7570 C             1 RES     
    7994 H           32.6033    44.5599    -0.9962 H             1 RES     
    7995 H           32.9340    42.8114    -0.9459 H             1 RES     
    7996 C           34.5952    44.0120    -1.6365 C             1 RES     
    7997 H           35.3406    43.2536    -1.3973 H             1 RES     
    7998 H           35.0099    45.0022    -1.4476 H             1 RES     
    7999 C           34.2025    43.8950    -3.1210 C             1 RES     
    8000 H           33.4571    44.6534    -3.3603 H             1 RES     
    8001 H           33.7878    42.9049    -3.3100 H             1 RES     
    8002 C           35.4490    44.1055    -4.0006 C             1 RES     
    8003 H           36.1944    43.3471    -3.7614 H             1 RES     
    8004 H           35.8637    45.0957    -3.8117 H             1 RES     
    8005 C           35.0563    43.9885    -5.4851 C             1 RES     
    8006 H           34.3109    44.7469    -5.7243 H             1 RES     
    8007 H           34.6416    42.9984    -5.6740 H             1 RES     
    8008 C           36.3028    44.1990    -6.3647 C             1 RES     
    8009 H           37.0482    43.4406    -6.1254 H             1 RES     
    8010 H           36.7175    45.1891    -6.1757 H             1 RES     
    8011 C           35.9101    44.0820    -7.8492 C             1 RES     
    8012 H           35.1647    44.8404    -8.0884 H             1 RES     
    8013 H           35.4954    43.0919    -8.0381 H             1 RES     
    8014 C           37.1566    44.2925    -8.7287 C             1 RES     
    8015 H           37.9021    43.5341    -8.4895 H             1 RES     
    8016 H           37.5713    45.2826    -8.5398 H             1 RES     
    8017 C           36.7639    44.1755   -10.2132 C             1 RES     
    8018 H           36.0185    44.9339   -10.4525 H             1 RES     
    8019 H           36.3492    43.1853   -10.4022 H             1 RES     
    8020 C           38.0104    44.3860   -11.0928 C             1 RES     
    8021 H           38.7559    43.6276   -10.8536 H             1 RES     
    8022 H           38.4251    45.3761   -10.9039 H             1 RES     
    8023 C           37.6178    44.2690   -12.5773 C             1 RES     
    8024 H           36.8723    45.0274   -12.8165 H             1 RES     
    8025 H           37.2030    43.2788   -12.7662 H             1 RES     
    8026 C           38.8642    44.4795   -13.4569 C             1 RES     
    8027 H           39.6097    43.7211   -13.2176 H             1 RES     
    8028 H           39.2789    45.4696   -13.2679 H             1 RES     
    8029 C           38.4716    44.3625   -14.9414 C             1 RES     
    8030 H           37.7261    45.1209   -15.1806 H             1 RES     
    8031 H           38.0568    43.3723   -15.1303 H             1 RES     
    8032 C           39.7180    44.5729   -15.8209 C             1 RES     
    8033 H           40.4635    43.8145   -15.5817 H             1 RES     
    8034 H           40.1327    45.5631   -15.6320 H             1 RES     
    8035 C           39.3254    44.4560   -17.3054 C             1 RES     
    8036 H           38.5799    45.2144   -17.5446 H             1 RES     
    8037 H           38.9107    43.4658   -17.4944 H             1 RES     
    8038 C           40.5718    44.6664   -18.1850 C             1 RES     
    8039 H           41.3173    43.9080   -17.9457 H             1 RES     
    8040 H           40.9865    45.6566   -17.9960 H             1 RES     
    8041 C           40.1792    44.5495   -19.6695 C             1 RES     
    8042 H           39.4337    45.3079   -19.9087 H             1 RES     
    8043 H           39.7645    43.5593   -19.8584 H             1 RES     
    8044 O           32.8634    43.8178     3.0000 O             1 RES     
    8045 H           33.1086    42.9436     3.3118 H             1 RES     
    8046 C           35.6907    41.7564   -20.5091 C             1 RES     
    8047 H           35.8670    42.8114   -20.5393 H             1 RES     
    8048 H           35.8818    41.3348   -21.4739 H             1 RES     
    8049 H           36.3413    41.3063   -19.7877 H             1 RES     
    8050 C           27.0025    43.8420     1.6071 C             1 RES     
    8051 H           26.5647    44.8111     1.3678 H             1 RES     
    8052 H           26.2714    43.0559     1.4181 H             1 RES     
    8053 C           28.2449    43.6092     0.7275 C             1 RES     
    8054 H           28.6827    42.6400     0.9667 H             1 RES     
    8055 H           28.9760    44.3953     0.9165 H             1 RES     
    8056 C           27.8360    43.6350    -0.7570 C             1 RES     
    8057 H           27.3983    44.6041    -0.9962 H             1 RES     
    8058 H           27.1050    42.8489    -0.9459 H             1 RES     
    8059 C           29.0785    43.4021    -1.6365 C             1 RES     
    8060 H           29.5163    42.4330    -1.3973 H             1 RES     
    8061 H           29.8096    44.1882    -1.4476 H             1 RES     
    8062 C           28.6696    43.4279    -3.1210 C             1 RES     
    8063 H           28.2319    44.3971    -3.3603 H             1 RES     
    8064 H           27.9386    42.6418    -3.3100 H             1 RES     
    8065 C           29.9121    43.1951    -4.0006 C             1 RES     
    8066 H           30.3499    42.2260    -3.7614 H             1 RES     
    8067 H           30.6432    43.9812    -3.8117 H             1 RES     
    8068 C           29.5032    43.2209    -5.4851 C             1 RES     
    8069 H           29.0654    44.1900    -5.7243 H             1 RES     
    8070 H           28.7721    42.4348    -5.6740 H             1 RES     
    8071 C           30.7457    42.9881    -6.3647 C             1 RES     
    8072 H           31.1835    42.0189    -6.1254 H             1 RES     
    8073 H           31.4768    43.7742    -6.1757 H             1 RES     
    8074 C           30.3368    43.0139    -7.8492 C             1 RES     
    8075 H           29.8990    43.9830    -8.0884 H             1 RES     
    8076 H           29.6057    42.2278    -8.0381 H             1 RES     
    8077 C           31.5793    42.7810    -8.7287 C             1 RES     
    8078 H           32.0170    41.8119    -8.4895 H             1 RES     
    8079 H           32.3103    43.5671    -8.5398 H             1 RES     
    8080 C           31.1704    42.8068   -10.2132 C             1 RES     
    8081 H           30.7326    43.7760   -10.4525 H             1 RES     
    8082 H           30.4393    42.0207   -10.4022 H             1 RES     
    8083 C           32.4129    42.5740   -11.0928 C             1 RES     
    8084 H           32.8506    41.6049   -10.8536 H             1 RES     
    8085 H           33.1439    43.3601   -10.9039 H             1 RES     
    8086 C           32.0040    42.5998   -12.5773 C             1 RES     
    8087 H           31.5662    43.5689   -12.8165 H             1 RES     
    8088 H           31.2729    41.8137   -12.7662 H             1 RES     
    8089 C           33.2464    42.3670   -13.4569 C             1 RES     
    8090 H           33.6842    41.3978   -13.2176 H             1 RES     
    8091 H           33.9775    43.1531   -13.2679 H             1 RES     
    8092 C           32.8375    42.3928   -14.9414 C             1 RES     
    8093 H           32.3998    43.3619   -15.1806 H             1 RES     
    8094 H           32.1065    41.6067   -15.1303 H             1 RES     
    8095 C           34.0800    42.1599   -15.8209 C             1 RES     
    8096 H           34.5178    41.1908   -15.5817 H             1 RES     
    8097 H           34.8111    42.9460   -15.6320 H             1 RES     
    8098 C           33.6711    42.1857   -17.3054 C             1 RES     
    8099 H           33.2334    43.1549   -17.5446 H             1 RES     
    8100 H           32.9401    41.3996   -17.4944 H             1 RES     
    8101 C           34.9136    41.9529   -18.1850 C             1 RES     
    8102 H           35.3514    40.9838   -17.9457 H             1 RES     
    8103 H           35.6447    42.7390   -17.9960 H             1 RES     
    8104 C           34.5047    41.9787   -19.6695 C             1 RES     
    8105 H           34.0669    42.9478   -19.9087 H             1 RES     
    8106 H           33.7736    41.1926   -19.8584 H             1 RES     
    8107 O           27.3861    43.8178     3.0000 O             1 RES     
    8108 H           27.3145    42.9127     3.3118 H             1 RES     
    8109 C            8.4856    17.5318   -20.5091 C             1 RES     
    8110 H            8.2661    18.5786   -20.5393 H             1 RES     
    8111 H            8.8170    17.2085   -21.4739 H             1 RES     
    8112 H            9.2554    17.3491   -19.7877 H             1 RES     
    8113 C           -0.3662    16.3147     1.6071 C             1 RES     
    8114 H           -1.1265    17.0582     1.3678 H             1 RES     
    8115 H           -0.7613    15.3165     1.4181 H             1 RES     
    8116 C            0.8759    16.5497     0.7275 C             1 RES     
    8117 H            1.6361    15.8061     0.9667 H             1 RES     
    8118 H            1.2710    17.5478     0.9165 H             1 RES     
    8119 C            0.4856    16.4250    -0.7570 C             1 RES     
    8120 H           -0.2747    17.1685    -0.9962 H             1 RES     
    8121 H            0.0905    15.4268    -0.9459 H             1 RES     
    8122 C            1.7277    16.6600    -1.6365 C             1 RES     
    8123 H            2.4879    15.9164    -1.3973 H             1 RES     
    8124 H            2.1228    17.6581    -1.4476 H             1 RES     
    8125 C            1.3374    16.5353    -3.1210 C             1 RES     
    8126 H            0.5771    17.2789    -3.3603 H             1 RES     
    8127 H            0.9423    15.5372    -3.3100 H             1 RES     
    8128 C            2.5795    16.7703    -4.0006 C             1 RES     
    8129 H            3.3397    16.0268    -3.7614 H             1 RES     
    8130 H            2.9746    17.7685    -3.8117 H             1 RES     
    8131 C            2.1892    16.6456    -5.4851 C             1 RES     
    8132 H            1.4289    17.3892    -5.7243 H             1 RES     
    8133 H            1.7941    15.6475    -5.6740 H             1 RES     
    8134 C            3.4313    16.8806    -6.3647 C             1 RES     
    8135 H            4.1915    16.1371    -6.1254 H             1 RES     
    8136 H            3.8264    17.8788    -6.1757 H             1 RES     
    8137 C            3.0410    16.7559    -7.8492 C             1 RES     
    8138 H            2.2807    17.4995    -8.0884 H             1 RES     
    8139 H            2.6459    15.7578    -8.0381 H             1 RES     
    8140 C            4.2831    16.9909    -8.7287 C             1 RES     
    8141 H            5.0433    16.2474    -8.4895 H             1 RES     
    8142 H            4.6782    17.9891    -8.5398 H             1 RES     
    8143 C            3.8928    16.8662   -10.2132 C             1 RES     
    8144 H            3.1325    17.6098   -10.4525 H             1 RES     
    8145 H            3.4977    15.8681   -10.4022 H             1 RES     
    8146 C            5.1349    17.1013   -11.0928 C             1 RES     
    8147 H            5.8951    16.3577   -10.8536 H             1 RES     
    8148 H            5.5300    18.0994   -10.9039 H             1 RES     
    8149 C            4.7446    16.9766   -12.5773 C             1 RES     
    8150 H            3.9843    17.7201   -12.8165 H             1 RES     
    8151 H            4.3495    15.9784   -12.7662 H             1 RES     
    8152 C            5.9866    17.2116   -13.4569 C             1 RES     
    8153 H            6.7469    16.4680   -13.2176 H             1 RES     
    8154 H            6.3817    18.2097   -13.2679 H             1 RES     
    8155 C            5.5964    17.0869   -14.9414 C             1 RES     
    8156 H            4.8361    17.8304   -15.1806 H             1 RES     
    8157 H            5.2013    16.0887   -15.1303 H             1 RES     
    8158 C            6.8384    17.3219   -15.8209 C             1 RES     
    8159 H            7.5987    16.5783   -15.5817 H             1 RES     
    8160 H            7.2335    18.3200   -15.6320 H             1 RES     
    8161 C            6.4482    17.1972   -17.3054 C             1 RES     
    8162 H            5.6879    17.9407   -17.5446 H             1 RES     
    8163 H            6.0531    16.1990   -17.4944 H             1 RES     
    8164 C            7.6902    17.4322   -18.1850 C             1 RES     
    8165 H            8.4505    16.6886   -17.9457 H             1 RES     
    8166 H            8.0853    18.4303   -17.9960 H             1 RES     
    8167 C            7.3000    17.3075   -19.6695 C             1 RES     
    8168 H            6.5397    18.0511   -19.9087 H             1 RES     
    8169 H            6.9049    16.3094   -19.8584 H             1 RES     
    8170 O            0.0000    16.4317     3.0000 O             1 RES     
    8171 H            0.2625    15.5625     3.3118 H             1 RES     
    8172 C           30.4250     6.3088   -20.5091 C             1 RES     
    8173 H           30.2387     7.3620   -20.5393 H             1 RES     
    8174 H           30.7460     5.9752   -21.4739 H             1 RES     
    8175 H           31.1886     6.1019   -19.7877 H             1 RES     
    8176 C           21.5392     5.3718     1.6071 C             1 RES     
    8177 H           20.8028     6.1390     1.3678 H             1 RES     
    8178 H           21.1128     4.3867     1.4181 H             1 RES     
    8179 C           22.7881     5.5675     0.7275 C             1 RES     
    8180 H           23.5245     4.8003     0.9667 H             1 RES     
    8181 H           23.2145     6.5527     0.9165 H             1 RES     
    8182 C           22.3940     5.4552    -0.7570 C             1 RES     
    8183 H           21.6577     6.2224    -0.9962 H             1 RES     
    8184 H           21.9676     4.4700    -0.9459 H             1 RES     
    8185 C           23.6429     5.6509    -1.6365 C             1 RES     
    8186 H           24.3793     4.8837    -1.3973 H             1 RES     
    8187 H           24.0694     6.6360    -1.4476 H             1 RES     
    8188 C           23.2489     5.5386    -3.1210 C             1 RES     
    8189 H           22.5125     6.3058    -3.3603 H             1 RES     
    8190 H           22.8225     4.5534    -3.3100 H             1 RES     
    8191 C           24.4978     5.7342    -4.0006 C             1 RES     
    8192 H           25.2342     4.9670    -3.7614 H             1 RES     
    8193 H           24.9242     6.7194    -3.8117 H             1 RES     
    8194 C           24.1038     5.6219    -5.4851 C             1 RES     
    8195 H           23.3674     6.3891    -5.7243 H             1 RES     
    8196 H           23.6773     4.6367    -5.6740 H             1 RES     
    8197 C           25.3526     5.8176    -6.3647 C             1 RES     
    8198 H           26.0890     5.0504    -6.1254 H             1 RES     
    8199 H           25.7791     6.8027    -6.1757 H             1 RES     
    8200 C           24.9586     5.7053    -7.8492 C             1 RES     
    8201 H           24.2222     6.4725    -8.0884 H             1 RES     
    8202 H           24.5322     4.7201    -8.0381 H             1 RES     
    8203 C           26.2075     5.9009    -8.7287 C             1 RES     
    8204 H           26.9439     5.1337    -8.4895 H             1 RES     
    8205 H           26.6339     6.8861    -8.5398 H             1 RES     
    8206 C           25.8135     5.7886   -10.2132 C             1 RES     
    8207 H           25.0771     6.5558   -10.4525 H             1 RES     
    8208 H           25.3870     4.8034   -10.4022 H             1 RES     
    8209 C           27.0623     5.9843   -11.0928 C             1 RES     
    8210 H           27.7987     5.2171   -10.8536 H             1 RES     
    8211 H           27.4888     6.9694   -10.9039 H             1 RES     
    8212 C           26.6683     5.8720   -12.5773 C             1 RES     
    8213 H           25.9319     6.6392   -12.8165 H             1 RES     
    8214 H           26.2419     4.8868   -12.7662 H             1 RES     
    8215 C           27.9172     6.0676   -13.4569 C             1 RES     
    8216 H           28.6536     5.3004   -13.2176 H             1 RES     
    8217 H           28.3436     7.0528   -13.2679 H             1 RES     
    8218 C           27.5232     5.9553   -14.9414 C             1 RES     
    8219 H           26.7868     6.7225   -15.1806 H             1 RES     
    8220 H           27.0967     4.9702   -15.1303 H             1 RES     
    8221 C           28.7721     6.1510   -15.8209 C             1 RES     
    8222 H           29.5084     5.3838   -15.5817 H             1 RES     
    8223 H           29.1985     7.1361   -15.6320 H             1 RES     
    8224 C           28.3780     6.0387   -17.3054 C             1 RES     
    8225 H           27.6416     6.8059   -17.5446 H             1 RES     
    8226 H           27.9516     5.0535   -17.4944 H             1 RES     
    8227 C           29.6269     6.2343   -18.1850 C             1 RES     
    8228 H           30.3633     5.4671   -17.9457 H             1 RES     
    8229 H           30.0533     7.2195   -17.9960 H             1 RES     
    8230 C           29.2329     6.1220   -19.6695 C             1 RES     
    8231 H           28.4965     6.8892   -19.9087 H             1 RES     
    8232 H           28.8065     5.1369   -19.8584 H             1 RES     
    8233 O           21.9089     5.4772     3.0000 O             1 RES     
    8234 H           22.1438     4.6002     3.3118 H             1 RES     
    8235 C           30.4542    15.9919   -20.5091 C             1 RES     
    8236 H           30.4261    17.0611   -20.5393 H             1 RES     
    8237 H           30.7222    15.6144   -21.4739 H             1 RES     
    8238 H           31.1787    15.6741   -19.7877 H             1 RES     
    8239 C           21.5277    16.3823     1.6071 C             1 RES     
    8240 H           20.9131    17.2501     1.3678 H             1 RES     
    8241 H           20.9599    15.4712     1.4181 H             1 RES     
    8242 C           22.7917    16.3907     0.7275 C             1 RES     
    8243 H           23.4063    15.5228     0.9667 H             1 RES     
    8244 H           23.3595    17.3017     0.9165 H             1 RES     
    8245 C           22.3854    16.3380    -0.7570 C             1 RES     
    8246 H           21.7709    17.2059    -0.9962 H             1 RES     
    8247 H           21.8177    15.4269    -0.9459 H             1 RES     
    8248 C           23.6495    16.3464    -1.6365 C             1 RES     
    8249 H           24.2641    15.4785    -1.3973 H             1 RES     
    8250 H           24.2172    17.2575    -1.4476 H             1 RES     
    8251 C           23.2432    16.2937    -3.1210 C             1 RES     
    8252 H           22.6286    17.1616    -3.3603 H             1 RES     
    8253 H           22.6755    15.3826    -3.3100 H             1 RES     
    8254 C           24.5073    16.3021    -4.0006 C             1 RES     
    8255 H           25.1218    15.4343    -3.7614 H             1 RES     
    8256 H           25.0750    17.2132    -3.8117 H             1 RES     
    8257 C           24.1010    16.2495    -5.4851 C             1 RES     
    8258 H           23.4864    17.1173    -5.7243 H             1 RES     
    8259 H           23.5332    15.3384    -5.6740 H             1 RES     
    8260 C           25.3650    16.2579    -6.3647 C             1 RES     
    8261 H           25.9796    15.3900    -6.1254 H             1 RES     
    8262 H           25.9328    17.1689    -6.1757 H             1 RES     
    8263 C           24.9587    16.2052    -7.8492 C             1 RES     
    8264 H           24.3442    17.0731    -8.0884 H             1 RES     
    8265 H           24.3910    15.2941    -8.0381 H             1 RES     
    8266 C           26.2228    16.2136    -8.7287 C             1 RES     
    8267 H           26.8374    15.3457    -8.4895 H             1 RES     
    8268 H           26.7905    17.1247    -8.5398 H             1 RES     
    8269 C           25.8165    16.1609   -10.2132 C             1 RES     
    8270 H           25.2019    17.0288   -10.4525 H             1 RES     
    8271 H           25.2488    15.2498   -10.4022 H             1 RES     
    8272 C           27.0806    16.1693   -11.0928 C             1 RES     
    8273 H           27.6951    15.3015   -10.8536 H             1 RES     
    8274 H           27.6483    17.0804   -10.9039 H             1 RES     
    8275 C           26.6743    16.1167   -12.5773 C             1 RES     
    8276 H           26.0597    16.9845   -12.8165 H             1 RES     
    8277 H           26.1065    15.2056   -12.7662 H             1 RES     
    8278 C           27.9383    16.1251   -13.4569 C             1 RES     
    8279 H           28.5529    15.2572   -13.2176 H             1 RES     
    8280 H           28.5061    17.0361   -13.2679 H             1 RES     
    8281 C           27.5320    16.0724   -14.9414 C             1 RES     
    8282 H           26.9175    16.9403   -15.1806 H             1 RES     
    8283 H           26.9643    15.1613   -15.1303 H             1 RES     
    8284 C           28.7961    16.0808   -15.8209 C             1 RES     
    8285 H           29.4107    15.2129   -15.5817 H             1 RES     
    8286 H           29.3638    16.9919   -15.6320 H             1 RES     
    8287 C           28.3898    16.0281   -17.3054 C             1 RES     
    8288 H           27.7752    16.8960   -17.5446 H             1 RES     
    8289 H           27.8221    15.1170   -17.4944 H             1 RES     
    8290 C           29.6539    16.0365   -18.1850 C             1 RES     
    8291 H           30.2684    15.1687   -17.9457 H             1 RES     
    8292 H           30.2216    16.9476   -17.9960 H             1 RES     
    8293 C           29.2476    15.9839   -19.6695 C             1 RES     
    8294 H           28.6330    16.8517   -19.9087 H             1 RES     
    8295 H           28.6798    15.0728   -19.8584 H             1 RES     
    8296 O           21.9089    16.4317     3.0000 O             1 RES     
    8297 H           22.0112    15.5295     3.3118 H             1 RES     
    8298 C           57.8486    21.6812   -20.5091 C             1 RES     
    8299 H           57.7939    22.7494   -20.5393 H             1 RES     
    8300 H           58.1259    21.3105   -21.4739 H             1 RES     
    8301 H           58.5808    21.3815   -19.7877 H             1 RES     
    8302 C           48.9151    21.8500     1.6071 C             1 RES     
    8303 H           48.2792    22.7024     1.3678 H             1 RES     
    8304 H           48.3702    20.9252     1.4181 H             1 RES     
    8305 C           50.1786    21.8898     0.7275 C             1 RES     
    8306 H           50.8145    21.0374     0.9667 H             1 RES     
    8307 H           50.7236    22.8147     0.9165 H             1 RES     
    8308 C           49.7737    21.8271    -0.7570 C             1 RES     
    8309 H           49.1378    22.6794    -0.9962 H             1 RES     
    8310 H           49.2288    20.9022    -0.9459 H             1 RES     
    8311 C           51.0372    21.8668    -1.6365 C             1 RES     
    8312 H           51.6731    21.0145    -1.3973 H             1 RES     
    8313 H           51.5822    22.7917    -1.4476 H             1 RES     
    8314 C           50.6323    21.8041    -3.1210 C             1 RES     
    8315 H           49.9964    22.6564    -3.3603 H             1 RES     
    8316 H           50.0874    20.8792    -3.3100 H             1 RES     
    8317 C           51.8958    21.8438    -4.0006 C             1 RES     
    8318 H           52.5317    20.9915    -3.7614 H             1 RES     
    8319 H           52.4408    22.7687    -3.8117 H             1 RES     
    8320 C           51.4909    21.7811    -5.4851 C             1 RES     
    8321 H           50.8550    22.6335    -5.7243 H             1 RES     
    8322 H           50.9460    20.8562    -5.6740 H             1 RES     
    8323 C           52.7544    21.8209    -6.3647 C             1 RES     
    8324 H           53.3903    20.9685    -6.1254 H             1 RES     
    8325 H           53.2994    22.7458    -6.1757 H             1 RES     
    8326 C           52.3495    21.7581    -7.8492 C             1 RES     
    8327 H           51.7136    22.6105    -8.0884 H             1 RES     
    8328 H           51.8046    20.8333    -8.0381 H             1 RES     
    8329 C           53.6130    21.7979    -8.7287 C             1 RES     
    8330 H           54.2489    20.9455    -8.4895 H             1 RES     
    8331 H           54.1580    22.7228    -8.5398 H             1 RES     
    8332 C           53.2081    21.7352   -10.2132 C             1 RES     
    8333 H           52.5722    22.5875   -10.4525 H             1 RES     
    8334 H           52.6632    20.8103   -10.4022 H             1 RES     
    8335 C           54.4716    21.7749   -11.0928 C             1 RES     
    8336 H           55.1075    20.9226   -10.8536 H             1 RES     
    8337 H           55.0166    22.6998   -10.9039 H             1 RES     
    8338 C           54.0667    21.7122   -12.5773 C             1 RES     
    8339 H           53.4308    22.5645   -12.8165 H             1 RES     
    8340 H           53.5218    20.7873   -12.7662 H             1 RES     
    8341 C           55.3302    21.7519   -13.4569 C             1 RES     
    8342 H           55.9661    20.8996   -13.2176 H             1 RES     
    8343 H           55.8752    22.6768   -13.2679 H             1 RES     
    8344 C           54.9253    21.6892   -14.9414 C             1 RES     
    8345 H           54.2894    22.5416   -15.1806 H             1 RES     
    8346 H           54.3804    20.7643   -15.1303 H             1 RES     
    8347 C           56.1888    21.7290   -15.8209 C             1 RES     
    8348 H           56.8247    20.8766   -15.5817 H             1 RES     
    8349 H           56.7338    22.6539   -15.6320 H             1 RES     
    8350 C           55.7839    21.6662   -17.3054 C             1 RES     
    8351 H           55.1481    22.5186   -17.5446 H             1 RES     
    8352 H           55.2390    20.7413   -17.4944 H             1 RES     
    8353 C           57.0474    21.7060   -18.1850 C             1 RES     
    8354 H           57.6833    20.8536   -17.9457 H             1 RES     
    8355 H           57.5924    22.6309   -17.9960 H             1 RES     
    8356 C           56.6425    21.6433   -19.6695 C             1 RES     
    8357 H           56.0067    22.4956   -19.9087 H             1 RES     
    8358 H           56.0976    20.7184   -19.8584 H             1 RES     
    8359 O           49.2950    21.9089     3.0000 O             1 RES     
    8360 H           49.4197    21.0095     3.3118 H             1 RES     
    8361 C            8.4915    48.2419   -20.5091 C             1 RES     
    8362 H            8.5404    49.3104   -20.5393 H             1 RES     
    8363 H            8.7317    47.8461   -21.4739 H             1 RES     
    8364 H            9.1913    47.8728   -19.7877 H             1 RES     
    8365 C           -0.3838    49.2732     1.6071 C             1 RES     
    8366 H           -0.9344    50.1830     1.3678 H             1 RES     
    8367 H           -1.0156    48.4053     1.4181 H             1 RES     
    8368 C            0.8776    49.1906     0.7275 C             1 RES     
    8369 H            1.4282    48.2808     0.9667 H             1 RES     
    8370 H            1.5094    50.0585     0.9165 H             1 RES     
    8371 C            0.4686    49.1673    -0.7570 C             1 RES     
    8372 H           -0.0820    50.0771    -0.9962 H             1 RES     
    8373 H           -0.1632    48.2994    -0.9459 H             1 RES     
    8374 C            1.7300    49.0848    -1.6365 C             1 RES     
    8375 H            2.2805    48.1750    -1.3973 H             1 RES     
    8376 H            2.3617    49.9527    -1.4476 H             1 RES     
    8377 C            1.3209    49.0615    -3.1210 C             1 RES     
    8378 H            0.7704    49.9713    -3.3603 H             1 RES     
    8379 H            0.6891    48.1936    -3.3100 H             1 RES     
    8380 C            2.5823    48.9790    -4.0006 C             1 RES     
    8381 H            3.1329    48.0692    -3.7614 H             1 RES     
    8382 H            3.2141    49.8469    -3.8117 H             1 RES     
    8383 C            2.1733    48.9557    -5.4851 C             1 RES     
    8384 H            1.6227    49.8655    -5.7243 H             1 RES     
    8385 H            1.5415    48.0878    -5.6740 H             1 RES     
    8386 C            3.4347    48.8731    -6.3647 C             1 RES     
    8387 H            3.9852    47.9633    -6.1254 H             1 RES     
    8388 H            4.0665    49.7410    -6.1757 H             1 RES     
    8389 C            3.0256    48.8498    -7.8492 C             1 RES     
    8390 H            2.4751    49.7596    -8.0884 H             1 RES     
    8391 H            2.3939    47.9819    -8.0381 H             1 RES     
    8392 C            4.2871    48.7673    -8.7287 C             1 RES     
    8393 H            4.8376    47.8575    -8.4895 H             1 RES     
    8394 H            4.9188    49.6352    -8.5398 H             1 RES     
    8395 C            3.8780    48.7440   -10.2132 C             1 RES     
    8396 H            3.3275    49.6538   -10.4525 H             1 RES     
    8397 H            3.2462    47.8761   -10.4022 H             1 RES     
    8398 C            5.1394    48.6615   -11.0928 C             1 RES     
    8399 H            5.6900    47.7517   -10.8536 H             1 RES     
    8400 H            5.7712    49.5294   -10.9039 H             1 RES     
    8401 C            4.7304    48.6382   -12.5773 C             1 RES     
    8402 H            4.1798    49.5480   -12.8165 H             1 RES     
    8403 H            4.0986    47.7703   -12.7662 H             1 RES     
    8404 C            5.9918    48.5556   -13.4569 C             1 RES     
    8405 H            6.5423    47.6458   -13.2176 H             1 RES     
    8406 H            6.6236    49.4235   -13.2679 H             1 RES     
    8407 C            5.5827    48.5323   -14.9414 C             1 RES     
    8408 H            5.0322    49.4421   -15.1806 H             1 RES     
    8409 H            4.9510    47.6644   -15.1303 H             1 RES     
    8410 C            6.8441    48.4498   -15.8209 C             1 RES     
    8411 H            7.3947    47.5400   -15.5817 H             1 RES     
    8412 H            7.4759    49.3177   -15.6320 H             1 RES     
    8413 C            6.4351    48.4265   -17.3054 C             1 RES     
    8414 H            5.8845    49.3363   -17.5446 H             1 RES     
    8415 H            5.8033    47.5586   -17.4944 H             1 RES     
    8416 C            7.6965    48.3440   -18.1850 C             1 RES     
    8417 H            8.2471    47.4342   -17.9457 H             1 RES     
    8418 H            8.3283    49.2119   -17.9960 H             1 RES     
    8419 C            7.2875    48.3207   -19.6695 C             1 RES     
    8420 H            6.7369    49.2305   -19.9087 H             1 RES     
    8421 H            6.6557    47.4528   -19.8584 H             1 RES     
    8422 O            0.0000    49.2950     3.0000 O             1 RES     
    8423 H            0.0371    48.3878     3.3118 H             1 RES     
    8424 C           19.4451    33.9234   -20.5091 C             1 RES     
    8425 H           19.2306    34.9713   -20.5393 H             1 RES     
    8426 H           19.7750    33.5986   -21.4739 H             1 RES     
    8427 H           20.2140    33.7371   -19.7877 H             1 RES     
    8428 C           10.5877    32.7481     1.6071 C             1 RES     
    8429 H            9.8310    33.4952     1.3678 H             1 RES     
    8430 H           10.1879    31.7518     1.4181 H             1 RES     
    8431 C           11.8309    32.9772     0.7275 C             1 RES     
    8432 H           12.5876    32.2301     0.9667 H             1 RES     
    8433 H           12.2307    33.9735     0.9165 H             1 RES     
    8434 C           11.4400    32.8544    -0.7570 C             1 RES     
    8435 H           10.6833    33.6015    -0.9962 H             1 RES     
    8436 H           11.0402    31.8581    -0.9459 H             1 RES     
    8437 C           12.6832    33.0835    -1.6365 C             1 RES     
    8438 H           13.4399    32.3364    -1.3973 H             1 RES     
    8439 H           13.0830    34.0798    -1.4476 H             1 RES     
    8440 C           12.2923    32.9607    -3.1210 C             1 RES     
    8441 H           11.5356    33.7078    -3.3603 H             1 RES     
    8442 H           11.8925    31.9644    -3.3100 H             1 RES     
    8443 C           13.5355    33.1898    -4.0006 C             1 RES     
    8444 H           14.2922    32.4427    -3.7614 H             1 RES     
    8445 H           13.9353    34.1861    -3.8117 H             1 RES     
    8446 C           13.1446    33.0670    -5.4851 C             1 RES     
    8447 H           12.3879    33.8141    -5.7243 H             1 RES     
    8448 H           12.7448    32.0707    -5.6740 H             1 RES     
    8449 C           14.3878    33.2961    -6.3647 C             1 RES     
    8450 H           15.1445    32.5490    -6.1254 H             1 RES     
    8451 H           14.7876    34.2924    -6.1757 H             1 RES     
    8452 C           13.9969    33.1732    -7.8492 C             1 RES     
    8453 H           13.2402    33.9204    -8.0884 H             1 RES     
    8454 H           13.5971    32.1770    -8.0381 H             1 RES     
    8455 C           15.2401    33.4024    -8.7287 C             1 RES     
    8456 H           15.9968    32.6553    -8.4895 H             1 RES     
    8457 H           15.6399    34.3987    -8.5398 H             1 RES     
    8458 C           14.8492    33.2795   -10.2132 C             1 RES     
    8459 H           14.0925    34.0267   -10.4525 H             1 RES     
    8460 H           14.4494    32.2833   -10.4022 H             1 RES     
    8461 C           16.0924    33.5087   -11.0928 C             1 RES     
    8462 H           16.8491    32.7615   -10.8536 H             1 RES     
    8463 H           16.4922    34.5049   -10.9039 H             1 RES     
    8464 C           15.7015    33.3858   -12.5773 C             1 RES     
    8465 H           14.9448    34.1330   -12.8165 H             1 RES     
    8466 H           15.3017    32.3896   -12.7662 H             1 RES     
    8467 C           16.9447    33.6150   -13.4569 C             1 RES     
    8468 H           17.7015    32.8678   -13.2176 H             1 RES     
    8469 H           17.3445    34.6112   -13.2679 H             1 RES     
    8470 C           16.5539    33.4921   -14.9414 C             1 RES     
    8471 H           15.7971    34.2393   -15.1806 H             1 RES     
    8472 H           16.1540    32.4958   -15.1303 H             1 RES     
    8473 C           17.7970    33.7213   -15.8209 C             1 RES     
    8474 H           18.5538    32.9741   -15.5817 H             1 RES     
    8475 H           18.1968    34.7175   -15.6320 H             1 RES     
    8476 C           17.4062    33.5984   -17.3054 C             1 RES     
    8477 H           16.6494    34.3455   -17.5446 H             1 RES     
    8478 H           17.0064    32.6021   -17.4944 H             1 RES     
    8479 C           18.6493    33.8276   -18.1850 C             1 RES     
    8480 H           19.4061    33.0804   -17.9457 H             1 RES     
    8481 H           19.0491    34.8238   -17.9960 H             1 RES     
    8482 C           18.2585    33.7047   -19.6695 C             1 RES     
    8483 H           17.5017    34.4518   -19.9087 H             1 RES     
    8484 H           17.8587    32.7084   -19.8584 H             1 RES     
    8485 O           10.9545    32.8634     3.0000 O             1 RES     
    8486 H           11.2128    31.9929     3.3118 H             1 RES     
    8487 C           14.0334    43.7300   -20.5091 C             1 RES     
    8488 H           13.9613    44.7972   -20.5393 H             1 RES     
    8489 H           14.3167    43.3639   -21.4739 H             1 RES     
    8490 H           14.7704    43.4423   -19.7877 H             1 RES     
    8491 C            5.0983    43.7527     1.6071 C             1 RES     
    8492 H            4.4486    44.5946     1.3678 H             1 RES     
    8493 H            4.5686    42.8191     1.4181 H             1 RES     
    8494 C            6.3610    43.8132     0.7275 C             1 RES     
    8495 H            7.0107    42.9713     0.9667 H             1 RES     
    8496 H            6.8908    44.7468     0.9165 H             1 RES     
    8497 C            5.9572    43.7438    -0.7570 C             1 RES     
    8498 H            5.3075    44.5857    -0.9962 H             1 RES     
    8499 H            5.4274    42.8101    -0.9459 H             1 RES     
    8500 C            7.2199    43.8042    -1.6365 C             1 RES     
    8501 H            7.8696    42.9624    -1.3973 H             1 RES     
    8502 H            7.7496    44.7379    -1.4476 H             1 RES     
    8503 C            6.8161    43.7349    -3.1210 C             1 RES     
    8504 H            6.1663    44.5767    -3.3603 H             1 RES     
    8505 H            6.2863    42.8012    -3.3100 H             1 RES     
    8506 C            8.0787    43.7953    -4.0006 C             1 RES     
    8507 H            8.7285    42.9534    -3.7614 H             1 RES     
    8508 H            8.6085    44.7290    -3.8117 H             1 RES     
    8509 C            7.6749    43.7259    -5.4851 C             1 RES     
    8510 H            7.0252    44.5678    -5.7243 H             1 RES     
    8511 H            7.1452    42.7923    -5.6740 H             1 RES     
    8512 C            8.9376    43.7864    -6.3647 C             1 RES     
    8513 H            9.5873    42.9445    -6.1254 H             1 RES     
    8514 H            9.4674    44.7200    -6.1757 H             1 RES     
    8515 C            8.5338    43.7170    -7.8492 C             1 RES     
    8516 H            7.8840    44.5589    -8.0884 H             1 RES     
    8517 H            8.0040    42.7833    -8.0381 H             1 RES     
    8518 C            9.7965    43.7774    -8.7287 C             1 RES     
    8519 H           10.4462    42.9356    -8.4895 H             1 RES     
    8520 H           10.3262    44.7111    -8.5398 H             1 RES     
    8521 C            9.3927    43.7081   -10.2132 C             1 RES     
    8522 H            8.7429    44.5499   -10.4525 H             1 RES     
    8523 H            8.8629    42.7744   -10.4022 H             1 RES     
    8524 C           10.6553    43.7685   -11.0928 C             1 RES     
    8525 H           11.3051    42.9266   -10.8536 H             1 RES     
    8526 H           11.1851    44.7022   -10.9039 H             1 RES     
    8527 C           10.2515    43.6992   -12.5773 C             1 RES     
    8528 H            9.6018    44.5410   -12.8165 H             1 RES     
    8529 H            9.7217    42.7655   -12.7662 H             1 RES     
    8530 C           11.5142    43.7596   -13.4569 C             1 RES     
    8531 H           12.1639    42.9177   -13.2176 H             1 RES     
    8532 H           12.0439    44.6932   -13.2679 H             1 RES     
    8533 C           11.1104    43.6902   -14.9414 C             1 RES     
    8534 H           10.4606    44.5321   -15.1806 H             1 RES     
    8535 H           10.5806    42.7565   -15.1303 H             1 RES     
    8536 C           12.3730    43.7506   -15.8209 C             1 RES     
    8537 H           13.0228    42.9088   -15.5817 H             1 RES     
    8538 H           12.9028    44.6843   -15.6320 H             1 RES     
    8539 C           11.9692    43.6813   -17.3054 C             1 RES     
    8540 H           11.3195    44.5231   -17.5446 H             1 RES     
    8541 H           11.4395    42.7476   -17.4944 H             1 RES     
    8542 C           13.2319    43.7417   -18.1850 C             1 RES     
    8543 H           13.8817    42.8999   -17.9457 H             1 RES     
    8544 H           13.7617    44.6754   -17.9960 H             1 RES     
    8545 C           12.8281    43.6724   -19.6695 C             1 RES     
    8546 H           12.1784    44.5142   -19.9087 H             1 RES     
    8547 H           12.2983    42.7387   -19.8584 H             1 RES     
    8548 O            5.4772    43.8178     3.0000 O             1 RES     
    8549 H            5.6165    42.9206     3.3118 H             1 RES     
    8550 C           19.4464     4.4276   -20.5091 C             1 RES     
    8551 H           19.4948     5.4961   -20.5393 H             1 RES     
    8552 H           19.6868     4.0319   -21.4739 H             1 RES     
    8553 H           20.1464     4.0588   -19.7877 H             1 RES     
    8554 C           10.5706     5.4552     1.6071 C             1 RES     
    8555 H           10.0197     6.3648     1.3678 H             1 RES     
    8556 H            9.9392     4.5870     1.4181 H             1 RES     
    8557 C           11.8321     5.3732     0.7275 C             1 RES     
    8558 H           12.3830     4.4636     0.9667 H             1 RES     
    8559 H           12.4635     6.2414     0.9165 H             1 RES     
    8560 C           11.4231     5.3497    -0.7570 C             1 RES     
    8561 H           10.8721     6.2593    -0.9962 H             1 RES     
    8562 H           10.7916     4.4815    -0.9459 H             1 RES     
    8563 C           12.6845     5.2677    -1.6365 C             1 RES     
    8564 H           13.2354     4.3581    -1.3973 H             1 RES     
    8565 H           13.3159     6.1359    -1.4476 H             1 RES     
    8566 C           12.2755     5.2442    -3.1210 C             1 RES     
    8567 H           11.7245     6.1538    -3.3603 H             1 RES     
    8568 H           11.6440     4.3761    -3.3100 H             1 RES     
    8569 C           13.5369     5.1622    -4.0006 C             1 RES     
    8570 H           14.0878     4.2527    -3.7614 H             1 RES     
    8571 H           14.1683     6.0304    -3.8117 H             1 RES     
    8572 C           13.1279     5.1388    -5.4851 C             1 RES     
    8573 H           12.5769     6.0483    -5.7243 H             1 RES     
    8574 H           12.4964     4.2706    -5.6740 H             1 RES     
    8575 C           14.3893     5.0568    -6.3647 C             1 RES     
    8576 H           14.9402     4.1472    -6.1254 H             1 RES     
    8577 H           15.0207     5.9249    -6.1757 H             1 RES     
    8578 C           13.9803     5.0333    -7.8492 C             1 RES     
    8579 H           13.4293     5.9429    -8.0884 H             1 RES     
    8580 H           13.3489     4.1651    -8.0381 H             1 RES     
    8581 C           15.2417     4.9513    -8.7287 C             1 RES     
    8582 H           15.7927     4.0417    -8.4895 H             1 RES     
    8583 H           15.8731     5.8194    -8.5398 H             1 RES     
    8584 C           14.8327     4.9278   -10.2132 C             1 RES     
    8585 H           14.2818     5.8374   -10.4525 H             1 RES     
    8586 H           14.2013     4.0596   -10.4022 H             1 RES     
    8587 C           16.0941     4.8458   -11.0928 C             1 RES     
    8588 H           16.6451     3.9362   -10.8536 H             1 RES     
    8589 H           16.7256     5.7140   -10.9039 H             1 RES     
    8590 C           15.6851     4.8223   -12.5773 C             1 RES     
    8591 H           15.1342     5.7319   -12.8165 H             1 RES     
    8592 H           15.0537     3.9541   -12.7662 H             1 RES     
    8593 C           16.9465     4.7403   -13.4569 C             1 RES     
    8594 H           17.4975     3.8307   -13.2176 H             1 RES     
    8595 H           17.5780     5.6085   -13.2679 H             1 RES     
    8596 C           16.5375     4.7168   -14.9414 C             1 RES     
    8597 H           15.9866     5.6264   -15.1806 H             1 RES     
    8598 H           15.9061     3.8487   -15.1303 H             1 RES     
    8599 C           17.7989     4.6348   -15.8209 C             1 RES     
    8600 H           18.3499     3.7253   -15.5817 H             1 RES     
    8601 H           18.4304     5.5030   -15.6320 H             1 RES     
    8602 C           17.3899     4.6114   -17.3054 C             1 RES     
    8603 H           16.8390     5.5209   -17.5446 H             1 RES     
    8604 H           16.7585     3.7432   -17.4944 H             1 RES     
    8605 C           18.6514     4.5294   -18.1850 C             1 RES     
    8606 H           19.2023     3.6198   -17.9457 H             1 RES     
    8607 H           19.2828     5.3975   -17.9960 H             1 RES     
    8608 C           18.2423     4.5059   -19.6695 C             1 RES     
    8609 H           17.6914     5.4155   -19.9087 H             1 RES     
    8610 H           17.6109     3.6377   -19.8584 H             1 RES     
    8611 O           10.9545     5.4772     3.0000 O             1 RES     
    8612 H           10.9920     4.5700     3.3118 H             1 RES     
    8613 C           41.1615    19.8216   -20.5091 C             1 RES     
    8614 H           41.3410    20.8760   -20.5393 H             1 RES     
    8615 H           41.3513    19.3993   -21.4739 H             1 RES     
    8616 H           41.8107    19.3694   -19.7877 H             1 RES     
    8617 C           32.4798    21.9343     1.6071 C             1 RES     
    8618 H           32.0450    22.9048     1.3678 H             1 RES     
    8619 H           31.7462    21.1505     1.4181 H             1 RES     
    8620 C           33.7215    21.6976     0.7275 C             1 RES     
    8621 H           34.1562    20.7271     0.9667 H             1 RES     
    8622 H           34.4550    22.4814     0.9165 H             1 RES     
    8623 C           33.3127    21.7247    -0.7570 C             1 RES     
    8624 H           32.8780    22.6952    -0.9962 H             1 RES     
    8625 H           32.5792    20.9409    -0.9459 H             1 RES     
    8626 C           34.5544    21.4879    -1.6365 C             1 RES     
    8627 H           34.9892    20.5174    -1.3973 H             1 RES     
    8628 H           35.2880    22.2718    -1.4476 H             1 RES     
    8629 C           34.1456    21.5150    -3.1210 C             1 RES     
    8630 H           33.7109    22.4855    -3.3603 H             1 RES     
    8631 H           33.4121    20.7312    -3.3100 H             1 RES     
    8632 C           35.3874    21.2783    -4.0006 C             1 RES     
    8633 H           35.8221    20.3078    -3.7614 H             1 RES     
    8634 H           36.1209    22.0621    -3.8117 H             1 RES     
    8635 C           34.9786    21.3054    -5.4851 C             1 RES     
    8636 H           34.5438    22.2759    -5.7243 H             1 RES     
    8637 H           34.2450    20.5216    -5.6740 H             1 RES     
    8638 C           36.2203    21.0687    -6.3647 C             1 RES     
    8639 H           36.6550    20.0982    -6.1254 H             1 RES     
    8640 H           36.9538    21.8525    -6.1757 H             1 RES     
    8641 C           35.8115    21.0957    -7.8492 C             1 RES     
    8642 H           35.3768    22.0662    -8.0884 H             1 RES     
    8643 H           35.0780    20.3119    -8.0381 H             1 RES     
    8644 C           37.0532    20.8590    -8.7287 C             1 RES     
    8645 H           37.4880    19.8885    -8.4895 H             1 RES     
    8646 H           37.7868    21.6428    -8.5398 H             1 RES     
    8647 C           36.6444    20.8861   -10.2132 C             1 RES     
    8648 H           36.2097    21.8566   -10.4525 H             1 RES     
    8649 H           35.9109    20.1023   -10.4022 H             1 RES     
    8650 C           37.8862    20.6494   -11.0928 C             1 RES     
    8651 H           38.3209    19.6789   -10.8536 H             1 RES     
    8652 H           38.6197    21.4332   -10.9039 H             1 RES     
    8653 C           37.4773    20.6764   -12.5773 C             1 RES     
    8654 H           37.0426    21.6469   -12.8165 H             1 RES     
    8655 H           36.7438    19.8926   -12.7662 H             1 RES     
    8656 C           38.7191    20.4397   -13.4569 C             1 RES     
    8657 H           39.1538    19.4692   -13.2176 H             1 RES     
    8658 H           39.4526    21.2235   -13.2679 H             1 RES     
    8659 C           38.3103    20.4668   -14.9414 C             1 RES     
    8660 H           37.8755    21.4373   -15.1806 H             1 RES     
    8661 H           37.5768    19.6830   -15.1303 H             1 RES     
    8662 C           39.5520    20.2301   -15.8209 C             1 RES     
    8663 H           39.9868    19.2596   -15.5817 H             1 RES     
    8664 H           40.2856    21.0139   -15.6320 H             1 RES     
    8665 C           39.1432    20.2572   -17.3054 C             1 RES     
    8666 H           38.7085    21.2277   -17.5446 H             1 RES     
    8667 H           38.4097    19.4734   -17.4944 H             1 RES     
    8668 C           40.3850    20.0205   -18.1850 C             1 RES     
    8669 H           40.8197    19.0500   -17.9457 H             1 RES     
    8670 H           41.1185    20.8043   -17.9960 H             1 RES     
    8671 C           39.9761    20.0475   -19.6695 C             1 RES     
    8672 H           39.5414    21.0180   -19.9087 H             1 RES     
    8673 H           39.2426    19.2637   -19.8584 H             1 RES     
    8674 O           32.8634    21.9089     3.0000 O             1 RES     
    8675 H           32.7889    21.0040     3.3118 H             1 RES     
    8676 C           38.7775    22.5832     2.9339 C             1 RES     
    8677 O           38.8859    23.8084     2.9370 O             1 RES     
    8678 O           38.3406    21.9089     4.0000 O             1 RES     
    8679 H           38.1516    22.5433     4.6953 H             1 RES     
    8680 C           39.1029    21.7358     1.8289 C             1 RES     
    8681 H           38.2182    21.1766     1.5245 H             1 RES     
    8682 H           39.8856    21.0410     2.1334 H             1 RES     
    8683 C           39.6036    22.5869     0.6471 C             1 RES     
    8684 H           40.4883    23.1461     0.9516 H             1 RES     
    8685 H           38.8209    23.2817     0.3427 H             1 RES     
    8686 C           39.9603    21.6661    -0.5346 C             1 RES     
    8687 H           39.0756    21.1069    -0.8391 H             1 RES     
    8688 H           40.7431    20.9713    -0.2302 H             1 RES     
    8689 C           40.4611    22.5172    -1.7164 C             1 RES     
    8690 H           41.3457    23.0764    -1.4120 H             1 RES     
    8691 H           39.6783    23.2119    -2.0209 H             1 RES     
    8692 C           40.8178    21.5964    -2.8982 C             1 RES     
    8693 H           39.9331    21.0372    -3.2026 H             1 RES     
    8694 H           41.6005    20.9016    -2.5938 H             1 RES     
    8695 C           41.3185    22.4474    -4.0800 C             1 RES     
    8696 H           42.2032    23.0067    -3.7755 H             1 RES     
    8697 H           40.5358    23.1422    -4.3844 H             1 RES     
    8698 C           41.6752    21.5267    -5.2618 C             1 RES     
    8699 H           40.7905    20.9675    -5.5662 H             1 RES     
    8700 H           42.4579    20.8319    -4.9573 H             1 RES     
    8701 C           42.1759    22.3777    -6.4436 C             1 RES     
    8702 H           43.0606    22.9370    -6.1391 H             1 RES     
    8703 H           41.3932    23.0725    -6.7480 H             1 RES     
    8704 C           42.5326    21.4570    -7.6253 C             1 RES     
    8705 H           41.6480    20.8978    -7.9298 H             1 RES     
    8706 H           43.3154    20.7622    -7.3209 H             1 RES     
    8707 C           43.0334    22.3080    -8.8071 C             1 RES     
    8708 H           43.9181    22.8673    -8.5027 H             1 RES     
    8709 H           42.2506    23.0028    -9.1116 H             1 RES     
    8710 C           43.3901    21.3873    -9.9889 C             1 RES     
    8711 H           42.5054    20.8280   -10.2934 H             1 RES     
    8712 H           44.1728    20.6925    -9.6845 H             1 RES     
    8713 C           43.8908    22.2383   -11.1707 C             1 RES     
    8714 H           44.7755    22.7976   -10.8662 H             1 RES     
    8715 H           43.1081    22.9331   -11.4751 H             1 RES     
    8716 C           44.2475    21.3176   -12.3525 C             1 RES     
    8717 H           43.3628    20.7583   -12.6569 H             1 RES     
    8718 H           45.0302    20.6228   -12.0480 H             1 RES     
    8719 C           44.7483    22.1686   -13.5343 C             1 RES     
    8720 H           45.6329    22.7278   -13.2298 H             1 RES     
    8721 H           43.9655    22.8634   -13.8387 H             1 RES     
    8722 C           45.0887    21.2897   -14.6623 C             1 RES     
    8723 H           46.0909    21.2082   -14.2964 H             1 RES     
    8724 H           45.1042    21.3782   -15.7287 H             1 RES     
    8725 H           44.5352    20.4163   -14.3848 H             1 RES     
    8726 C           27.6031    11.7281     2.9339 C             1 RES     
    8727 O           27.3427    12.9302     2.9370 O             1 RES     
    8728 O           27.3861    10.9545     4.0000 O             1 RES     
    8729 H           27.0173    11.5041     4.6953 H             1 RES     
    8730 C           28.1654    11.0156     1.8289 C             1 RES     
    8731 H           27.4868    10.2188     1.5245 H             1 RES     
    8732 H           29.1192    10.5846     2.1334 H             1 RES     
    8733 C           28.3908    11.9769     0.6471 C             1 RES     
    8734 H           29.0695    12.7737     0.9516 H             1 RES     
    8735 H           27.4371    12.4079     0.3427 H             1 RES     
    8736 C           29.0049    11.2037    -0.5346 C             1 RES     
    8737 H           28.3262    10.4069    -0.8391 H             1 RES     
    8738 H           29.9587    10.7727    -0.2302 H             1 RES     
    8739 C           29.2303    12.1650    -1.7164 C             1 RES     
    8740 H           29.9089    12.9618    -1.4120 H             1 RES     
    8741 H           28.2765    12.5960    -2.0209 H             1 RES     
    8742 C           29.8443    11.3918    -2.8982 C             1 RES     
    8743 H           29.1657    10.5950    -3.2026 H             1 RES     
    8744 H           30.7981    10.9608    -2.5938 H             1 RES     
    8745 C           30.0697    12.3531    -4.0800 C             1 RES     
    8746 H           30.7484    13.1499    -3.7755 H             1 RES     
    8747 H           29.1160    12.7841    -4.3844 H             1 RES     
    8748 C           30.6838    11.5799    -5.2618 C             1 RES     
    8749 H           30.0051    10.7831    -5.5662 H             1 RES     
    8750 H           31.6376    11.1489    -4.9573 H             1 RES     
    8751 C           30.9092    12.5412    -6.4436 C             1 RES     
    8752 H           31.5878    13.3380    -6.1391 H             1 RES     
    8753 H           29.9554    12.9722    -6.7480 H             1 RES     
    8754 C           31.5232    11.7680    -7.6253 C             1 RES     
    8755 H           30.8446    10.9712    -7.9298 H             1 RES     
    8756 H           32.4770    11.3370    -7.3209 H             1 RES     
    8757 C           31.7486    12.7293    -8.8071 C             1 RES     
    8758 H           32.4273    13.5261    -8.5027 H             1 RES     
    8759 H           30.7949    13.1603    -9.1116 H             1 RES     
    8760 C           32.3627    11.9561    -9.9889 C             1 RES     
    8761 H           31.6840    11.1593   -10.2934 H             1 RES     
    8762 H           33.3165    11.5251    -9.6845 H             1 RES     
    8763 C           32.5881    12.9174   -11.1707 C             1 RES     
    8764 H           33.2668    13.7142   -10.8662 H             1 RES     
    8765 H           31.6343    13.3484   -11.4751 H             1 RES     
    8766 C           33.2022    12.1442   -12.3525 C             1 RES     
    8767 H           32.5235    11.3474   -12.6569 H             1 RES     
    8768 H           34.1559    11.7132   -12.0480 H             1 RES     
    8769 C           33.4275    13.1055   -13.5343 C             1 RES     
    8770 H           34.1062    13.9023   -13.2298 H             1 RES     
    8771 H           32.4738    13.5365   -13.8387 H             1 RES     
    8772 C           34.0137    12.3674   -14.6623 C             1 RES     
    8773 H           34.9948    12.5873   -14.2964 H             1 RES     
    8774 H           34.0022    12.4565   -15.7287 H             1 RES     
    8775 H           33.7445    11.3690   -14.3848 H             1 RES     
    8776 C           33.1774    39.0801     2.9339 C             1 RES     
    8777 O           33.0729    40.3057     2.9370 O             1 RES     
    8778 O           32.8634    38.3406     4.0000 O             1 RES     
    8779 H           32.5678    38.9329     4.6953 H             1 RES     
    8780 C           33.6441    38.3016     1.8289 C             1 RES     
    8781 H           32.8691    37.5981     1.5245 H             1 RES     
    8782 H           34.5349    37.7522     2.1334 H             1 RES     
    8783 C           33.9905    39.2262     0.6471 C             1 RES     
    8784 H           34.7655    39.9297     0.9516 H             1 RES     
    8785 H           33.0997    39.7756     0.3427 H             1 RES     
    8786 C           34.5007    38.3808    -0.5346 C             1 RES     
    8787 H           33.7257    37.6774    -0.8391 H             1 RES     
    8788 H           35.3915    37.8314    -0.2302 H             1 RES     
    8789 C           34.8471    39.3055    -1.7164 C             1 RES     
    8790 H           35.6221    40.0089    -1.4120 H             1 RES     
    8791 H           33.9563    39.8548    -2.0209 H             1 RES     
    8792 C           35.3573    38.4600    -2.8982 C             1 RES     
    8793 H           34.5823    37.7566    -3.2026 H             1 RES     
    8794 H           36.2481    37.9107    -2.5938 H             1 RES     
    8795 C           35.7038    39.3847    -4.0800 C             1 RES     
    8796 H           36.4787    40.0881    -3.7755 H             1 RES     
    8797 H           34.8129    39.9341    -4.3844 H             1 RES     
    8798 C           36.2139    38.5393    -5.2618 C             1 RES     
    8799 H           35.4390    37.8358    -5.5662 H             1 RES     
    8800 H           37.1048    37.9899    -4.9573 H             1 RES     
    8801 C           36.5604    39.4639    -6.4436 C             1 RES     
    8802 H           37.3353    40.1674    -6.1391 H             1 RES     
    8803 H           35.6695    40.0133    -6.7480 H             1 RES     
    8804 C           37.0705    38.6185    -7.6253 C             1 RES     
    8805 H           36.2956    37.9151    -7.9298 H             1 RES     
    8806 H           37.9614    38.0691    -7.3209 H             1 RES     
    8807 C           37.4170    39.5431    -8.8071 C             1 RES     
    8808 H           38.1919    40.2466    -8.5027 H             1 RES     
    8809 H           36.5261    40.0925    -9.1116 H             1 RES     
    8810 C           37.9271    38.6977    -9.9889 C             1 RES     
    8811 H           37.1522    37.9943   -10.2934 H             1 RES     
    8812 H           38.8180    38.1484    -9.6845 H             1 RES     
    8813 C           38.2736    39.6224   -11.1707 C             1 RES     
    8814 H           39.0486    40.3258   -10.8662 H             1 RES     
    8815 H           37.3828    40.1718   -11.4751 H             1 RES     
    8816 C           38.7838    38.7770   -12.3525 C             1 RES     
    8817 H           38.0088    38.0735   -12.6569 H             1 RES     
    8818 H           39.6746    38.2276   -12.0480 H             1 RES     
    8819 C           39.1302    39.7016   -13.5343 C             1 RES     
    8820 H           39.9052    40.4051   -13.2298 H             1 RES     
    8821 H           38.2394    40.2510   -13.8387 H             1 RES     
    8822 C           39.6172    38.8946   -14.6623 C             1 RES     
    8823 H           40.6184    38.9872   -14.2964 H             1 RES     
    8824 H           39.6171    38.9844   -15.7287 H             1 RES     
    8825 H           39.2226    37.9388   -14.3848 H             1 RES     
    8826 C            5.8108     6.2082     2.9339 C             1 RES     
    8827 O            5.7387     7.4361     2.9370 O             1 RES     
    8828 O            5.4772     5.4772     4.0000 O             1 RES     
    8829 H            5.1975     6.0772     4.6953 H             1 RES     
    8830 C            6.2566     5.4176     1.8289 C             1 RES     
    8831 H            5.4633     4.7349     1.5245 H             1 RES     
    8832 H            7.1326     4.8448     2.1334 H             1 RES     
    8833 C            6.6274     6.3327     0.6471 C             1 RES     
    8834 H            7.4208     7.0154     0.9516 H             1 RES     
    8835 H            5.7515     6.9055     0.3427 H             1 RES     
    8836 C            7.1151     5.4741    -0.5346 C             1 RES     
    8837 H            6.3218     4.7914    -0.8391 H             1 RES     
    8838 H            7.9910     4.9014    -0.2302 H             1 RES     
    8839 C            7.4859     6.3893    -1.7164 C             1 RES     
    8840 H            8.2792     7.0720    -1.4120 H             1 RES     
    8841 H            6.6099     6.9620    -2.0209 H             1 RES     
    8842 C            7.9735     5.5307    -2.8982 C             1 RES     
    8843 H            7.1802     4.8480    -3.2026 H             1 RES     
    8844 H            8.8495     4.9579    -2.5938 H             1 RES     
    8845 C            8.3443     6.4458    -4.0800 C             1 RES     
    8846 H            9.1376     7.1285    -3.7755 H             1 RES     
    8847 H            7.4683     7.0186    -4.3844 H             1 RES     
    8848 C            8.8319     5.5872    -5.2618 C             1 RES     
    8849 H            8.0386     4.9045    -5.5662 H             1 RES     
    8850 H            9.7079     5.0144    -4.9573 H             1 RES     
    8851 C            9.2027     6.5023    -6.4436 C             1 RES     
    8852 H            9.9960     7.1850    -6.1391 H             1 RES     
    8853 H            8.3267     7.0751    -6.7480 H             1 RES     
    8854 C            9.6903     5.6437    -7.6253 C             1 RES     
    8855 H            8.8970     4.9610    -7.9298 H             1 RES     
    8856 H           10.5663     5.0710    -7.3209 H             1 RES     
    8857 C           10.0611     6.5589    -8.8071 C             1 RES     
    8858 H           10.8544     7.2416    -8.5027 H             1 RES     
    8859 H            9.1851     7.1316    -9.1116 H             1 RES     
    8860 C           10.5487     5.7003    -9.9889 C             1 RES     
    8861 H            9.7554     5.0176   -10.2934 H             1 RES     
    8862 H           11.4247     5.1275    -9.6845 H             1 RES     
    8863 C           10.9195     6.6154   -11.1707 C             1 RES     
    8864 H           11.7128     7.2981   -10.8662 H             1 RES     
    8865 H           10.0435     7.1882   -11.4751 H             1 RES     
    8866 C           11.4071     5.7568   -12.3525 C             1 RES     
    8867 H           10.6138     5.0741   -12.6569 H             1 RES     
    8868 H           12.2831     5.1840   -12.0480 H             1 RES     
    8869 C           11.7779     6.6719   -13.5343 C             1 RES     
    8870 H           12.5712     7.3546   -13.2298 H             1 RES     
    8871 H           10.9019     7.2447   -13.8387 H             1 RES     
    8872 C           12.2433     5.8524   -14.6623 C             1 RES     
    8873 H           13.2466     5.9184   -14.2964 H             1 RES     
    8874 H           12.2457     5.9422   -15.7287 H             1 RES     
    8875 H           11.8236     4.9073   -14.3848 H             1 RES     
    8876 C           22.1206    28.1612     2.9339 C             1 RES     
    8877 O           21.8521    29.3615     2.9370 O             1 RES     
    8878 O           21.9089    27.3861     4.0000 O             1 RES     
    8879 H           21.5364    27.9333     4.6953 H             1 RES     
    8880 C           22.6878    27.4525     1.8289 C             1 RES     
    8881 H           22.0145    26.6512     1.5245 H             1 RES     
    8882 H           23.6444    27.0280     2.1334 H             1 RES     
    8883 C           22.9067    28.4154     0.6471 C             1 RES     
    8884 H           23.5800    29.2167     0.9516 H             1 RES     
    8885 H           21.9500    28.8399     0.3427 H             1 RES     
    8886 C           23.5259    27.6463    -0.5346 C             1 RES     
    8887 H           22.8527    26.8450    -0.8391 H             1 RES     
    8888 H           24.4826    27.2218    -0.2302 H             1 RES     
    8889 C           23.7448    28.6091    -1.7164 C             1 RES     
    8890 H           24.4181    29.4105    -1.4120 H             1 RES     
    8891 H           22.7882    29.0337    -2.0209 H             1 RES     
    8892 C           24.3641    27.8400    -2.8982 C             1 RES     
    8893 H           23.6908    27.0387    -3.2026 H             1 RES     
    8894 H           25.3208    27.4155    -2.5938 H             1 RES     
    8895 C           24.5830    28.8029    -4.0800 C             1 RES     
    8896 H           25.2563    29.6042    -3.7755 H             1 RES     
    8897 H           23.6263    29.2274    -4.3844 H             1 RES     
    8898 C           25.2023    28.0338    -5.2618 C             1 RES     
    8899 H           24.5290    27.2325    -5.5662 H             1 RES     
    8900 H           26.1589    27.6093    -4.9573 H             1 RES     
    8901 C           25.4212    28.9967    -6.4436 C             1 RES     
    8902 H           26.0944    29.7980    -6.1391 H             1 RES     
    8903 H           24.4645    29.4212    -6.7480 H             1 RES     
    8904 C           26.0404    28.2276    -7.6253 C             1 RES     
    8905 H           25.3672    27.4262    -7.9298 H             1 RES     
    8906 H           26.9971    27.8030    -7.3209 H             1 RES     
    8907 C           26.2593    29.1904    -8.8071 C             1 RES     
    8908 H           26.9326    29.9917    -8.5027 H             1 RES     
    8909 H           25.3027    29.6149    -9.1116 H             1 RES     
    8910 C           26.8786    28.4213    -9.9889 C             1 RES     
    8911 H           26.2053    27.6200   -10.2934 H             1 RES     
    8912 H           27.8353    27.9968    -9.6845 H             1 RES     
    8913 C           27.0975    29.3842   -11.1707 C             1 RES     
    8914 H           27.7708    30.1855   -10.8662 H             1 RES     
    8915 H           26.1408    29.8087   -11.4751 H             1 RES     
    8916 C           27.7168    28.6151   -12.3525 C             1 RES     
    8917 H           27.0435    27.8138   -12.6569 H             1 RES     
    8918 H           28.6734    28.1906   -12.0480 H             1 RES     
    8919 C           27.9357    29.5779   -13.5343 C             1 RES     
    8920 H           28.6089    30.3792   -13.2298 H             1 RES     
    8921 H           26.9790    30.0025   -13.8387 H             1 RES     
    8922 C           28.5268    28.8438   -14.6623 C             1 RES     
    8923 H           29.5064    29.0703   -14.2964 H             1 RES     
    8924 H           28.5146    28.9328   -15.7287 H             1 RES     
    8925 H           28.2644    27.8436   -14.3848 H             1 RES     
    8926 C           11.4960    17.0252     2.9339 C             1 RES     
    8927 O           11.8037    18.2161     2.9370 O             1 RES     
    8928 O           10.9545    16.4317     4.0000 O             1 RES     
    8929 H           10.8721    17.0885     4.6953 H             1 RES     
    8930 C           11.6781    16.1360     1.8289 C             1 RES     
    8931 H           10.7137    15.7293     1.5245 H             1 RES     
    8932 H           12.3363    15.3223     2.1334 H             1 RES     
    8933 C           12.3115    16.8934     0.6471 C             1 RES     
    8934 H           13.2759    17.3001     0.9516 H             1 RES     
    8935 H           11.6533    17.7071     0.3427 H             1 RES     
    8936 C           12.5125    15.9267    -0.5346 C             1 RES     
    8937 H           11.5481    15.5200    -0.8391 H             1 RES     
    8938 H           13.1708    15.1130    -0.2302 H             1 RES     
    8939 C           13.1460    16.6841    -1.7164 C             1 RES     
    8940 H           14.1103    17.0908    -1.4120 H             1 RES     
    8941 H           12.4877    17.4978    -2.0209 H             1 RES     
    8942 C           13.3469    15.7174    -2.8982 C             1 RES     
    8943 H           12.3825    15.3107    -3.2026 H             1 RES     
    8944 H           14.0052    14.9037    -2.5938 H             1 RES     
    8945 C           13.9804    16.4748    -4.0800 C             1 RES     
    8946 H           14.9448    16.8815    -3.7755 H             1 RES     
    8947 H           13.3221    17.2885    -4.3844 H             1 RES     
    8948 C           14.1813    15.5081    -5.2618 C             1 RES     
    8949 H           13.2169    15.1014    -5.5662 H             1 RES     
    8950 H           14.8396    14.6944    -4.9573 H             1 RES     
    8951 C           14.8148    16.2655    -6.4436 C             1 RES     
    8952 H           15.7792    16.6722    -6.1391 H             1 RES     
    8953 H           14.1565    17.0792    -6.7480 H             1 RES     
    8954 C           15.0157    15.2988    -7.6253 C             1 RES     
    8955 H           14.0514    14.8921    -7.9298 H             1 RES     
    8956 H           15.6740    14.4851    -7.3209 H             1 RES     
    8957 C           15.6492    16.0562    -8.8071 C             1 RES     
    8958 H           16.6136    16.4629    -8.5027 H             1 RES     
    8959 H           14.9909    16.8699    -9.1116 H             1 RES     
    8960 C           15.8502    15.0894    -9.9889 C             1 RES     
    8961 H           14.8858    14.6828   -10.2934 H             1 RES     
    8962 H           16.5084    14.2757    -9.6845 H             1 RES     
    8963 C           16.4836    15.8469   -11.1707 C             1 RES     
    8964 H           17.4480    16.2536   -10.8662 H             1 RES     
    8965 H           15.8254    16.6606   -11.4751 H             1 RES     
    8966 C           16.6846    14.8801   -12.3525 C             1 RES     
    8967 H           15.7202    14.4735   -12.6569 H             1 RES     
    8968 H           17.3428    14.0664   -12.0480 H             1 RES     
    8969 C           17.3180    15.6376   -13.5343 C             1 RES     
    8970 H           18.2824    16.0442   -13.2298 H             1 RES     
    8971 H           16.6598    16.4513   -13.8387 H             1 RES     
    8972 C           17.5099    14.7148   -14.6623 C             1 RES     
    8973 H           18.4851    14.4701   -14.2964 H             1 RES     
    8974 H           17.5396    14.7995   -15.7287 H             1 RES     
    8975 H           16.8207    13.9439   -14.3848 H             1 RES     
    8976 C           38.6830     0.7269     2.9339 C             1 RES     
    8977 O           38.6257     1.9555     2.9370 O             1 RES     
    8978 O           38.3406     0.0000     4.0000 O             1 RES     
    8979 H           38.0681     0.6033     4.6953 H             1 RES     
    8980 C           39.1192    -0.0691     1.8289 C             1 RES     
    8981 H           38.3177    -0.7421     1.5245 H             1 RES     
    8982 H           39.9882    -0.6524     2.1334 H             1 RES     
    8983 C           39.5011     0.8415     0.6471 C             1 RES     
    8984 H           40.3026     1.5145     0.9516 H             1 RES     
    8985 H           38.6321     1.4248     0.3427 H             1 RES     
    8986 C           39.9783    -0.0229    -0.5346 C             1 RES     
    8987 H           39.1767    -0.6960    -0.8391 H             1 RES     
    8988 H           40.8472    -0.6063    -0.2302 H             1 RES     
    8989 C           40.3601     0.8876    -1.7164 C             1 RES     
    8990 H           41.1616     1.5607    -1.4120 H             1 RES     
    8991 H           39.4911     1.4710    -2.0209 H             1 RES     
    8992 C           40.8373     0.0232    -2.8982 C             1 RES     
    8993 H           40.0358    -0.6499    -3.2026 H             1 RES     
    8994 H           41.7063    -0.5602    -2.5938 H             1 RES     
    8995 C           41.2191     0.9338    -4.0800 C             1 RES     
    8996 H           42.0207     1.6068    -3.7755 H             1 RES     
    8997 H           40.3502     1.5171    -4.3844 H             1 RES     
    8998 C           41.6963     0.0693    -5.2618 C             1 RES     
    8999 H           40.8948    -0.6037    -5.5662 H             1 RES     
    9000 H           42.5653    -0.5140    -4.9573 H             1 RES     
    9001 C           42.0782     0.9799    -6.4436 C             1 RES     
    9002 H           42.8797     1.6529    -6.1391 H             1 RES     
    9003 H           41.2092     1.5632    -6.7480 H             1 RES     
    9004 C           42.5553     0.1154    -7.6253 C             1 RES     
    9005 H           41.7538    -0.5576    -7.9298 H             1 RES     
    9006 H           43.4243    -0.4679    -7.3209 H             1 RES     
    9007 C           42.9372     1.0260    -8.8071 C             1 RES     
    9008 H           43.7387     1.6991    -8.5027 H             1 RES     
    9009 H           42.0682     1.6094    -9.1116 H             1 RES     
    9010 C           43.4144     0.1616    -9.9889 C             1 RES     
    9011 H           42.6129    -0.5115   -10.2934 H             1 RES     
    9012 H           44.2834    -0.4218    -9.6845 H             1 RES     
    9013 C           43.7962     1.0722   -11.1707 C             1 RES     
    9014 H           44.5978     1.7452   -10.8662 H             1 RES     
    9015 H           42.9272     1.6555   -11.4751 H             1 RES     
    9016 C           44.2734     0.2077   -12.3525 C             1 RES     
    9017 H           43.4719    -0.4653   -12.6569 H             1 RES     
    9018 H           45.1424    -0.3756   -12.0480 H             1 RES     
    9019 C           44.6553     1.1183   -13.5343 C             1 RES     
    9020 H           45.4568     1.7913   -13.2298 H             1 RES     
    9021 H           43.7863     1.7016   -13.8387 H             1 RES     
    9022 C           45.1107     0.2931   -14.6623 C             1 RES     
    9023 H           46.1148     0.3470   -14.2964 H             1 RES     
    9024 H           45.1142     0.3829   -15.7287 H             1 RES     
    9025 H           44.6796    -0.6467   -14.3848 H             1 RES     
    9026 C           38.8314    44.4539     2.9339 C             1 RES     
    9027 O           39.0401    45.6661     2.9370 O             1 RES     
    9028 O           38.3406    43.8178     4.0000 O             1 RES     
    9029 H           38.2044    44.4656     4.6953 H             1 RES     
    9030 C           39.0861    43.5827     1.8289 C             1 RES     
    9031 H           38.1584    43.0980     1.5245 H             1 RES     
    9032 H           39.8091    42.8259     2.1334 H             1 RES     
    9033 C           39.6551    44.3897     0.6471 C             1 RES     
    9034 H           40.5827    44.8743     0.9516 H             1 RES     
    9035 H           38.9321    45.1464     0.3427 H             1 RES     
    9036 C           39.9349    43.4427    -0.5346 C             1 RES     
    9037 H           39.0072    42.9581    -0.8391 H             1 RES     
    9038 H           40.6579    42.6860    -0.2302 H             1 RES     
    9039 C           40.5039    44.2497    -1.7164 C             1 RES     
    9040 H           41.4315    44.7344    -1.4120 H             1 RES     
    9041 H           39.7809    45.0065    -2.0209 H             1 RES     
    9042 C           40.7837    43.3028    -2.8982 C             1 RES     
    9043 H           39.8561    42.8182    -3.2026 H             1 RES     
    9044 H           41.5067    42.5460    -2.5938 H             1 RES     
    9045 C           41.3527    44.1098    -4.0800 C             1 RES     
    9046 H           42.2803    44.5945    -3.7755 H             1 RES     
    9047 H           40.6297    44.8666    -4.3844 H             1 RES     
    9048 C           41.6325    43.1629    -5.2618 C             1 RES     
    9049 H           40.7049    42.6782    -5.5662 H             1 RES     
    9050 H           42.3555    42.4061    -4.9573 H             1 RES     
    9051 C           42.2015    43.9699    -6.4436 C             1 RES     
    9052 H           43.1291    44.4545    -6.1391 H             1 RES     
    9053 H           41.4785    44.7266    -6.7480 H             1 RES     
    9054 C           42.4813    43.0229    -7.6253 C             1 RES     
    9055 H           41.5537    42.5383    -7.9298 H             1 RES     
    9056 H           43.2043    42.2662    -7.3209 H             1 RES     
    9057 C           43.0503    43.8299    -8.8071 C             1 RES     
    9058 H           43.9780    44.3146    -8.5027 H             1 RES     
    9059 H           42.3273    44.5867    -9.1116 H             1 RES     
    9060 C           43.3301    42.8830    -9.9889 C             1 RES     
    9061 H           42.4025    42.3984   -10.2934 H             1 RES     
    9062 H           44.0531    42.1262    -9.6845 H             1 RES     
    9063 C           43.8991    43.6900   -11.1707 C             1 RES     
    9064 H           44.8268    44.1747   -10.8662 H             1 RES     
    9065 H           43.1761    44.4468   -11.4751 H             1 RES     
    9066 C           44.1789    42.7431   -12.3525 C             1 RES     
    9067 H           43.2513    42.2584   -12.6569 H             1 RES     
    9068 H           44.9019    41.9863   -12.0480 H             1 RES     
    9069 C           44.7479    43.5501   -13.5343 C             1 RES     
    9070 H           45.6756    44.0347   -13.2298 H             1 RES     
    9071 H           44.0249    44.3068   -13.8387 H             1 RES     
    9072 C           45.0150    42.6462   -14.6623 C             1 RES     
    9073 H           46.0071    42.4826   -14.2964 H             1 RES     
    9074 H           45.0377    42.7331   -15.7287 H             1 RES     
    9075 H           44.3916    41.8212   -14.3848 H             1 RES     
    9076 C           11.3729    11.6403     2.9339 C             1 RES     
    9077 O           11.4480    12.8681     2.9370 O             1 RES     
    9078 O           10.9545    10.9545     4.0000 O             1 RES     
    9079 H           10.7483    11.5835     4.6953 H             1 RES     
    9080 C           11.7212    10.8021     1.8289 C             1 RES     
    9081 H           10.8520    10.2191     1.5245 H             1 RES     
    9082 H           12.5225    10.1289     2.1334 H             1 RES     
    9083 C           12.1986    11.6665     0.6471 C             1 RES     
    9084 H           13.0678    12.2495     0.9516 H             1 RES     
    9085 H           11.3973    12.3397     0.3427 H             1 RES     
    9086 C           12.5802    10.7558    -0.5346 C             1 RES     
    9087 H           11.7110    10.1727    -0.8391 H             1 RES     
    9088 H           13.3815    10.0825    -0.2302 H             1 RES     
    9089 C           13.0576    11.6201    -1.7164 C             1 RES     
    9090 H           13.9268    12.2031    -1.4120 H             1 RES     
    9091 H           12.2563    12.2933    -2.0209 H             1 RES     
    9092 C           13.4392    10.7094    -2.8982 C             1 RES     
    9093 H           12.5700    10.1263    -3.2026 H             1 RES     
    9094 H           14.2405    10.0361    -2.5938 H             1 RES     
    9095 C           13.9166    11.5737    -4.0800 C             1 RES     
    9096 H           14.7858    12.1567    -3.7755 H             1 RES     
    9097 H           13.1153    12.2470    -4.3844 H             1 RES     
    9098 C           14.2982    10.6630    -5.2618 C             1 RES     
    9099 H           13.4291    10.0799    -5.5662 H             1 RES     
    9100 H           15.0995     9.9897    -4.9573 H             1 RES     
    9101 C           14.7757    11.5273    -6.4436 C             1 RES     
    9102 H           15.6448    12.1103    -6.1391 H             1 RES     
    9103 H           13.9744    12.2006    -6.7480 H             1 RES     
    9104 C           15.1572    10.6166    -7.6253 C             1 RES     
    9105 H           14.2881    10.0335    -7.9298 H             1 RES     
    9106 H           15.9585     9.9433    -7.3209 H             1 RES     
    9107 C           15.6347    11.4809    -8.8071 C             1 RES     
    9108 H           16.5039    12.0639    -8.5027 H             1 RES     
    9109 H           14.8334    12.1542    -9.1116 H             1 RES     
    9110 C           16.0163    10.5702    -9.9889 C             1 RES     
    9111 H           15.1471     9.9871   -10.2934 H             1 RES     
    9112 H           16.8176     9.8969    -9.6845 H             1 RES     
    9113 C           16.4937    11.4345   -11.1707 C             1 RES     
    9114 H           17.3629    12.0175   -10.8662 H             1 RES     
    9115 H           15.6924    12.1078   -11.4751 H             1 RES     
    9116 C           16.8753    10.5238   -12.3525 C             1 RES     
    9117 H           16.0061     9.9407   -12.6569 H             1 RES     
    9118 H           17.6766     9.8505   -12.0480 H             1 RES     
    9119 C           17.3527    11.3881   -13.5343 C             1 RES     
    9120 H           18.2219    11.9711   -13.2298 H             1 RES     
    9121 H           16.5514    12.0614   -13.8387 H             1 RES     
    9122 C           17.7169    10.5188   -14.6623 C             1 RES     
    9123 H           18.7209    10.4645   -14.2964 H             1 RES     
    9124 H           17.7300    10.6076   -15.7287 H             1 RES     
    9125 H           17.1873     9.6306   -14.3848 H             1 RES     
    9126 C           44.3107     0.6345     2.9339 C             1 RES     
    9127 O           44.5233     1.8460     2.9370 O             1 RES     
    9128 O           43.8178     0.0000     4.0000 O             1 RES     
    9129 H           43.6837     0.6482     4.6953 H             1 RES     
    9130 C           44.5626    -0.2375     1.8289 C             1 RES     
    9131 H           43.6334    -0.7192     1.5245 H             1 RES     
    9132 H           45.2831    -0.9966     2.1334 H             1 RES     
    9133 C           45.1341     0.5677     0.6471 C             1 RES     
    9134 H           46.0633     1.0493     0.9516 H             1 RES     
    9135 H           44.4136     1.3267     0.3427 H             1 RES     
    9136 C           45.4109    -0.3802    -0.5346 C             1 RES     
    9137 H           44.4817    -0.8618    -0.8391 H             1 RES     
    9138 H           46.1315    -1.1392    -0.2302 H             1 RES     
    9139 C           45.9825     0.4250    -1.7164 C             1 RES     
    9140 H           46.9117     0.9067    -1.4120 H             1 RES     
    9141 H           45.2619     1.1841    -2.0209 H             1 RES     
    9142 C           46.2593    -0.5228    -2.8982 C             1 RES     
    9143 H           45.3301    -1.0045    -3.2026 H             1 RES     
    9144 H           46.9798    -1.2819    -2.5938 H             1 RES     
    9145 C           46.8308     0.2824    -4.0800 C             1 RES     
    9146 H           47.7600     0.7640    -3.7755 H             1 RES     
    9147 H           46.1103     1.0414    -4.3844 H             1 RES     
    9148 C           47.1076    -0.6655    -5.2618 C             1 RES     
    9149 H           46.1784    -1.1471    -5.5662 H             1 RES     
    9150 H           47.8282    -1.4245    -4.9573 H             1 RES     
    9151 C           47.6792     0.1397    -6.4436 C             1 RES     
    9152 H           48.6084     0.6214    -6.1391 H             1 RES     
    9153 H           46.9586     0.8988    -6.7480 H             1 RES     
    9154 C           47.9560    -0.8081    -7.6253 C             1 RES     
    9155 H           47.0268    -1.2898    -7.9298 H             1 RES     
    9156 H           48.6765    -1.5672    -7.3209 H             1 RES     
    9157 C           48.5275    -0.0029    -8.8071 C             1 RES     
    9158 H           49.4567     0.4787    -8.5027 H             1 RES     
    9159 H           47.8070     0.7561    -9.1116 H             1 RES     
    9160 C           48.8043    -0.9508    -9.9889 C             1 RES     
    9161 H           47.8751    -1.4324   -10.2934 H             1 RES     
    9162 H           49.5249    -1.7098    -9.6845 H             1 RES     
    9163 C           49.3759    -0.1456   -11.1707 C             1 RES     
    9164 H           50.3051     0.3361   -10.8662 H             1 RES     
    9165 H           48.6553     0.6135   -11.4751 H             1 RES     
    9166 C           49.6527    -1.0934   -12.3525 C             1 RES     
    9167 H           48.7235    -1.5751   -12.6569 H             1 RES     
    9168 H           50.3733    -1.8525   -12.0480 H             1 RES     
    9169 C           50.2243    -0.2882   -13.5343 C             1 RES     
    9170 H           51.1535     0.1934   -13.2298 H             1 RES     
    9171 H           49.5037     0.4708   -13.8387 H             1 RES     
    9172 C           50.4885    -1.1930   -14.6623 C             1 RES     
    9173 H           51.4800    -1.3597   -14.2964 H             1 RES     
    9174 H           50.5114    -1.1061   -15.7287 H             1 RES     
    9175 H           49.8624    -2.0160   -14.3848 H             1 RES     
    9176 C           38.7761     6.1524     2.9339 C             1 RES     
    9177 O           38.8819     7.3779     2.9370 O             1 RES     
    9178 O           38.3406     5.4772     4.0000 O             1 RES     
    9179 H           38.1503     6.1112     4.6953 H             1 RES     
    9180 C           39.1032     5.3058     1.8289 C             1 RES     
    9181 H           38.2198     4.7447     1.5245 H             1 RES     
    9182 H           39.8875     4.6126     2.1334 H             1 RES     
    9183 C           39.6022     6.1579     0.6471 C             1 RES     
    9184 H           40.4857     6.7190     0.9516 H             1 RES     
    9185 H           38.8180     6.8510     0.3427 H             1 RES     
    9186 C           39.9608     5.2379    -0.5346 C             1 RES     
    9187 H           39.0773     4.6768    -0.8391 H             1 RES     
    9188 H           40.7450     4.5448    -0.2302 H             1 RES     
    9189 C           40.4598     6.0900    -1.7164 C             1 RES     
    9190 H           41.3433     6.6511    -1.4120 H             1 RES     
    9191 H           39.6756     6.7831    -2.0209 H             1 RES     
    9192 C           40.8184     5.1700    -2.8982 C             1 RES     
    9193 H           39.9349     4.6089    -3.2026 H             1 RES     
    9194 H           41.6026     4.4769    -2.5938 H             1 RES     
    9195 C           41.3174     6.0221    -4.0800 C             1 RES     
    9196 H           42.2008     6.5832    -3.7755 H             1 RES     
    9197 H           40.5331     6.7152    -4.3844 H             1 RES     
    9198 C           41.6760     5.1021    -5.2618 C             1 RES     
    9199 H           40.7925     4.5410    -5.5662 H             1 RES     
    9200 H           42.4602     4.4090    -4.9573 H             1 RES     
    9201 C           42.1749     5.9542    -6.4436 C             1 RES     
    9202 H           43.0584     6.5153    -6.1391 H             1 RES     
    9203 H           41.3907     6.6473    -6.7480 H             1 RES     
    9204 C           42.5336     5.0342    -7.6253 C             1 RES     
    9205 H           41.6501     4.4731    -7.9298 H             1 RES     
    9206 H           43.3178     4.3411    -7.3209 H             1 RES     
    9207 C           43.0325     5.8863    -8.8071 C             1 RES     
    9208 H           43.9160     6.4474    -8.5027 H             1 RES     
    9209 H           42.2483     6.5795    -9.1116 H             1 RES     
    9210 C           43.3912     4.9663    -9.9889 C             1 RES     
    9211 H           42.5077     4.4052   -10.2934 H             1 RES     
    9212 H           44.1754     4.2732    -9.6845 H             1 RES     
    9213 C           43.8901     5.8184   -11.1707 C             1 RES     
    9214 H           44.7736     6.3796   -10.8662 H             1 RES     
    9215 H           43.1059     6.5116   -11.4751 H             1 RES     
    9216 C           44.2488     4.8985   -12.3525 C             1 RES     
    9217 H           43.3653     4.3373   -12.6569 H             1 RES     
    9218 H           45.0330     4.2053   -12.0480 H             1 RES     
    9219 C           44.7477     5.7505   -13.5343 C             1 RES     
    9220 H           45.6312     6.3117   -13.2298 H             1 RES     
    9221 H           43.9635     6.4437   -13.8387 H             1 RES     
    9222 C           45.0900     4.8724   -14.6623 C             1 RES     
    9223 H           46.0924     4.7930   -14.2964 H             1 RES     
    9224 H           45.1053     4.9609   -15.7287 H             1 RES     
    9225 H           44.5384     3.9978   -14.3848 H             1 RES     
    9226 C           16.6566    17.2030     2.9339 C             1 RES     
    9227 O           16.4085    18.4078     2.9370 O             1 RES     
    9228 O           16.4317    16.4317     4.0000 O             1 RES     
    9229 H           16.0685    16.9851     4.6953 H             1 RES     
    9230 C           17.2116    16.4848     1.8289 C             1 RES     
    9231 H           16.5248    15.6951     1.5245 H             1 RES     
    9232 H           18.1609    16.0441     2.1334 H             1 RES     
    9233 C           17.4468    17.4438     0.6471 C             1 RES     
    9234 H           18.1336    18.2335     0.9516 H             1 RES     
    9235 H           16.4975    17.8845     0.3427 H             1 RES     
    9236 C           18.0529    16.6643    -0.5346 C             1 RES     
    9237 H           17.3661    15.8745    -0.8391 H             1 RES     
    9238 H           19.0022    16.2235    -0.2302 H             1 RES     
    9239 C           18.2882    17.6233    -1.7164 C             1 RES     
    9240 H           18.9750    18.4130    -1.4120 H             1 RES     
    9241 H           17.3389    18.0640    -2.0209 H             1 RES     
    9242 C           18.8943    16.8438    -2.8982 C             1 RES     
    9243 H           18.2074    16.0540    -3.2026 H             1 RES     
    9244 H           19.8435    16.4030    -2.5938 H             1 RES     
    9245 C           19.1295    17.8027    -4.0800 C             1 RES     
    9246 H           19.8163    18.5925    -3.7755 H             1 RES     
    9247 H           18.1802    18.2435    -4.3844 H             1 RES     
    9248 C           19.7356    17.0232    -5.2618 C             1 RES     
    9249 H           19.0488    16.2335    -5.5662 H             1 RES     
    9250 H           20.6849    16.5825    -4.9573 H             1 RES     
    9251 C           19.9708    17.9822    -6.4436 C             1 RES     
    9252 H           20.6577    18.7719    -6.1391 H             1 RES     
    9253 H           19.0215    18.4229    -6.7480 H             1 RES     
    9254 C           20.5769    17.2027    -7.6253 C             1 RES     
    9255 H           19.8901    16.4129    -7.9298 H             1 RES     
    9256 H           21.5262    16.7619    -7.3209 H             1 RES     
    9257 C           20.8122    18.1617    -8.8071 C             1 RES     
    9258 H           21.4990    18.9514    -8.5027 H             1 RES     
    9259 H           19.8629    18.6024    -9.1116 H             1 RES     
    9260 C           21.4183    17.3822    -9.9889 C             1 RES     
    9261 H           20.7315    16.5924   -10.2934 H             1 RES     
    9262 H           22.3676    16.9414    -9.6845 H             1 RES     
    9263 C           21.6535    18.3411   -11.1707 C             1 RES     
    9264 H           22.3403    19.1309   -10.8662 H             1 RES     
    9265 H           20.7042    18.7819   -11.4751 H             1 RES     
    9266 C           22.2596    17.5616   -12.3525 C             1 RES     
    9267 H           21.5728    16.7719   -12.6569 H             1 RES     
    9268 H           23.2089    17.1209   -12.0480 H             1 RES     
    9269 C           22.4949    18.5206   -13.5343 C             1 RES     
    9270 H           23.1817    19.3103   -13.2298 H             1 RES     
    9271 H           21.5456    18.9613   -13.8387 H             1 RES     
    9272 C           23.0734    17.7765   -14.6623 C             1 RES     
    9273 H           24.0567    17.9863   -14.2964 H             1 RES     
    9274 H           23.0628    17.8657   -15.7287 H             1 RES     
    9275 H           22.7940    16.7809   -14.3848 H             1 RES     
    9276 C           49.5899     6.2246     2.9339 C             1 RES     
    9277 O           49.4538     7.4471     2.9370 O             1 RES     
    9278 O           49.2950     5.4772     4.0000 O             1 RES     
    9279 H           48.9843     6.0617     4.6953 H             1 RES     
    9280 C           50.0765     5.4584     1.8289 C             1 RES     
    9281 H           49.3199     4.7352     1.5245 H             1 RES     
    9282 H           50.9812     4.9322     2.1334 H             1 RES     
    9283 C           50.3990     6.3916     0.6471 C             1 RES     
    9284 H           51.1556     7.1148     0.9516 H             1 RES     
    9285 H           49.4943     6.9179     0.3427 H             1 RES     
    9286 C           50.9308     5.5597    -0.5346 C             1 RES     
    9287 H           50.1742     4.8365    -0.8391 H             1 RES     
    9288 H           51.8355     5.0334    -0.2302 H             1 RES     
    9289 C           51.2533     6.4929    -1.7164 C             1 RES     
    9290 H           52.0099     7.2161    -1.4120 H             1 RES     
    9291 H           50.3486     7.0192    -2.0209 H             1 RES     
    9292 C           51.7851     5.6610    -2.8982 C             1 RES     
    9293 H           51.0285     4.9378    -3.2026 H             1 RES     
    9294 H           52.6898     5.1347    -2.5938 H             1 RES     
    9295 C           52.1076     6.5942    -4.0800 C             1 RES     
    9296 H           52.8641     7.3174    -3.7755 H             1 RES     
    9297 H           51.2029     7.1204    -4.3844 H             1 RES     
    9298 C           52.6394     5.7622    -5.2618 C             1 RES     
    9299 H           51.8828     5.0390    -5.5662 H             1 RES     
    9300 H           53.5441     5.2360    -4.9573 H             1 RES     
    9301 C           52.9619     6.6955    -6.4436 C             1 RES     
    9302 H           53.7184     7.4187    -6.1391 H             1 RES     
    9303 H           52.0571     7.2217    -6.7480 H             1 RES     
    9304 C           53.4936     5.8635    -7.6253 C             1 RES     
    9305 H           52.7371     5.1403    -7.9298 H             1 RES     
    9306 H           54.3984     5.3373    -7.3209 H             1 RES     
    9307 C           53.8161     6.7968    -8.8071 C             1 RES     
    9308 H           54.5727     7.5200    -8.5027 H             1 RES     
    9309 H           52.9114     7.3230    -9.1116 H             1 RES     
    9310 C           54.3479     5.9648    -9.9889 C             1 RES     
    9311 H           53.5914     5.2416   -10.2934 H             1 RES     
    9312 H           55.2526     5.4386    -9.6845 H             1 RES     
    9313 C           54.6704     6.8981   -11.1707 C             1 RES     
    9314 H           55.4270     7.6213   -10.8662 H             1 RES     
    9315 H           53.7657     7.4243   -11.4751 H             1 RES     
    9316 C           55.2022     6.0661   -12.3525 C             1 RES     
    9317 H           54.4456     5.3429   -12.6569 H             1 RES     
    9318 H           56.1069     5.5399   -12.0480 H             1 RES     
    9319 C           55.5247     6.9994   -13.5343 C             1 RES     
    9320 H           56.2813     7.7226   -13.2298 H             1 RES     
    9321 H           54.6200     7.5256   -13.8387 H             1 RES     
    9322 C           56.0323     6.2052   -14.6623 C             1 RES     
    9323 H           57.0308     6.3236   -14.2964 H             1 RES     
    9324 H           56.0300     6.2950   -15.7287 H             1 RES     
    9325 H           55.6625     5.2396   -14.3848 H             1 RES     
    9326 C            5.7243    28.1507     2.9339 C             1 RES     
    9327 O            5.5111    29.3621     2.9370 O             1 RES     
    9328 O            5.4772    27.3861     4.0000 O             1 RES     
    9329 H            5.1302    27.9498     4.6953 H             1 RES     
    9330 C            6.2583    27.4168     1.8289 C             1 RES     
    9331 H            5.5490    26.6471     1.5245 H             1 RES     
    9332 H            7.1945    26.9488     2.1334 H             1 RES     
    9333 C            6.5211    28.3686     0.6471 C             1 RES     
    9334 H            7.2304    29.1382     0.9516 H             1 RES     
    9335 H            5.5850    28.8365     0.3427 H             1 RES     
    9336 C            7.1045    27.5719    -0.5346 C             1 RES     
    9337 H            6.3952    26.8023    -0.8391 H             1 RES     
    9338 H            8.0407    27.1039    -0.2302 H             1 RES     
    9339 C            7.3673    28.5237    -1.7164 C             1 RES     
    9340 H            8.0766    29.2933    -1.4120 H             1 RES     
    9341 H            6.4311    28.9916    -2.0209 H             1 RES     
    9342 C            7.9507    27.7270    -2.8982 C             1 RES     
    9343 H            7.2414    26.9574    -3.2026 H             1 RES     
    9344 H            8.8868    27.2591    -2.5938 H             1 RES     
    9345 C            8.2135    28.6788    -4.0800 C             1 RES     
    9346 H            8.9228    29.4484    -3.7755 H             1 RES     
    9347 H            7.2773    29.1467    -4.3844 H             1 RES     
    9348 C            8.7968    27.8821    -5.2618 C             1 RES     
    9349 H            8.0875    27.1125    -5.5662 H             1 RES     
    9350 H            9.7330    27.4142    -4.9573 H             1 RES     
    9351 C            9.0596    28.8339    -6.4436 C             1 RES     
    9352 H            9.7689    29.6035    -6.1391 H             1 RES     
    9353 H            8.1234    29.3019    -6.7480 H             1 RES     
    9354 C            9.6430    28.0373    -7.6253 C             1 RES     
    9355 H            8.9337    27.2677    -7.9298 H             1 RES     
    9356 H           10.5792    27.5693    -7.3209 H             1 RES     
    9357 C            9.9058    28.9891    -8.8071 C             1 RES     
    9358 H           10.6151    29.7587    -8.5027 H             1 RES     
    9359 H            8.9696    29.4570    -9.1116 H             1 RES     
    9360 C           10.4892    28.1924    -9.9889 C             1 RES     
    9361 H            9.7799    27.4228   -10.2934 H             1 RES     
    9362 H           11.4253    27.7245    -9.6845 H             1 RES     
    9363 C           10.7520    29.1442   -11.1707 C             1 RES     
    9364 H           11.4613    29.9138   -10.8662 H             1 RES     
    9365 H            9.8158    29.6121   -11.4751 H             1 RES     
    9366 C           11.3353    28.3475   -12.3525 C             1 RES     
    9367 H           10.6260    27.5779   -12.6569 H             1 RES     
    9368 H           12.2715    27.8796   -12.0480 H             1 RES     
    9369 C           11.5981    29.2993   -13.5343 C             1 RES     
    9370 H           12.3074    30.0689   -13.2298 H             1 RES     
    9371 H           10.6619    29.7673   -13.8387 H             1 RES     
    9372 C           12.1550    28.5389   -14.6623 C             1 RES     
    9373 H           13.1440    28.7202   -14.2964 H             1 RES     
    9374 H           12.1469    28.6283   -15.7287 H             1 RES     
    9375 H           11.8470    27.5518   -14.3848 H             1 RES     
    9376 C           49.8225    27.9922     2.9339 C             1 RES     
    9377 O           50.1022    29.1900     2.9370 O             1 RES     
    9378 O           49.2950    27.3861     4.0000 O             1 RES     
    9379 H           49.1972    28.0408     4.6953 H             1 RES     
    9380 C           50.0254    27.1075     1.8289 C             1 RES     
    9381 H           49.0708    26.6783     1.5245 H             1 RES     
    9382 H           50.7026    26.3095     2.1334 H             1 RES     
    9383 C           50.6409    27.8796     0.6471 C             1 RES     
    9384 H           51.5955    28.3089     0.9516 H             1 RES     
    9385 H           49.9637    28.6777     0.3427 H             1 RES     
    9386 C           50.8645    26.9179    -0.5346 C             1 RES     
    9387 H           49.9099    26.4887    -0.8391 H             1 RES     
    9388 H           51.5417    26.1199    -0.2302 H             1 RES     
    9389 C           51.4800    27.6900    -1.7164 C             1 RES     
    9390 H           52.4346    28.1192    -1.4120 H             1 RES     
    9391 H           50.8028    28.4880    -2.0209 H             1 RES     
    9392 C           51.7036    26.7282    -2.8982 C             1 RES     
    9393 H           50.7490    26.2990    -3.2026 H             1 RES     
    9394 H           52.3808    25.9302    -2.5938 H             1 RES     
    9395 C           52.3191    27.5004    -4.0800 C             1 RES     
    9396 H           53.2737    27.9296    -3.7755 H             1 RES     
    9397 H           51.6419    28.2984    -4.3844 H             1 RES     
    9398 C           52.5427    26.5386    -5.2618 C             1 RES     
    9399 H           51.5882    26.1094    -5.5662 H             1 RES     
    9400 H           53.2199    25.7406    -4.9573 H             1 RES     
    9401 C           53.1582    27.3107    -6.4436 C             1 RES     
    9402 H           54.1128    27.7399    -6.1391 H             1 RES     
    9403 H           52.4810    28.1087    -6.7480 H             1 RES     
    9404 C           53.3818    26.3489    -7.6253 C             1 RES     
    9405 H           52.4273    25.9197    -7.9298 H             1 RES     
    9406 H           54.0590    25.5509    -7.3209 H             1 RES     
    9407 C           53.9973    27.1211    -8.8071 C             1 RES     
    9408 H           54.9519    27.5503    -8.5027 H             1 RES     
    9409 H           53.3201    27.9191    -9.1116 H             1 RES     
    9410 C           54.2209    26.1593    -9.9889 C             1 RES     
    9411 H           53.2664    25.7301   -10.2934 H             1 RES     
    9412 H           54.8981    25.3613    -9.6845 H             1 RES     
    9413 C           54.8364    26.9314   -11.1707 C             1 RES     
    9414 H           55.7910    27.3606   -10.8662 H             1 RES     
    9415 H           54.1592    27.7294   -11.4751 H             1 RES     
    9416 C           55.0600    25.9697   -12.3525 C             1 RES     
    9417 H           54.1055    25.5404   -12.6569 H             1 RES     
    9418 H           55.7372    25.1716   -12.0480 H             1 RES     
    9419 C           55.6755    26.7418   -13.5343 C             1 RES     
    9420 H           56.6301    27.1710   -13.2298 H             1 RES     
    9421 H           54.9983    27.5398   -13.8387 H             1 RES     
    9422 C           55.8890    25.8237   -14.6623 C             1 RES     
    9423 H           56.8697    25.6021   -14.2964 H             1 RES     
    9424 H           55.9167    25.9092   -15.7287 H             1 RES     
    9425 H           55.2181    25.0369   -14.3848 H             1 RES     
    9426 C           11.4069     0.6640     2.9339 C             1 RES     
    9427 O           11.5436     1.8864     2.9370 O             1 RES     
    9428 O           10.9545     0.0000     4.0000 O             1 RES     
    9429 H           10.7802     0.6386     4.6953 H             1 RES     
    9430 C           11.7125    -0.1907     1.8289 C             1 RES     
    9431 H           10.8151    -0.7293     1.5245 H             1 RES     
    9432 H           12.4790    -0.9034     2.1334 H             1 RES     
    9433 C           12.2329     0.6485     0.6471 C             1 RES     
    9434 H           13.1302     1.1871     0.9516 H             1 RES     
    9435 H           11.4664     1.3613     0.3427 H             1 RES     
    9436 C           12.5681    -0.2802    -0.5346 C             1 RES     
    9437 H           11.6707    -0.8188    -0.8391 H             1 RES     
    9438 H           13.3346    -0.9930    -0.2302 H             1 RES     
    9439 C           13.0884     0.5590    -1.7164 C             1 RES     
    9440 H           13.9858     1.0976    -1.4120 H             1 RES     
    9441 H           12.3220     1.2717    -2.0209 H             1 RES     
    9442 C           13.4237    -0.3698    -2.8982 C             1 RES     
    9443 H           12.5263    -0.9084    -3.2026 H             1 RES     
    9444 H           14.1902    -1.0825    -2.5938 H             1 RES     
    9445 C           13.9440     0.4694    -4.0800 C             1 RES     
    9446 H           14.8414     1.0080    -3.7755 H             1 RES     
    9447 H           13.1776     1.1822    -4.3844 H             1 RES     
    9448 C           14.2793    -0.4593    -5.2618 C             1 RES     
    9449 H           13.3819    -0.9979    -5.5662 H             1 RES     
    9450 H           15.0458    -1.1720    -4.9573 H             1 RES     
    9451 C           14.7996     0.3799    -6.4436 C             1 RES     
    9452 H           15.6970     0.9185    -6.1391 H             1 RES     
    9453 H           14.0332     1.0926    -6.7480 H             1 RES     
    9454 C           15.1349    -0.5489    -7.6253 C             1 RES     
    9455 H           14.2375    -1.0875    -7.9298 H             1 RES     
    9456 H           15.9014    -1.2616    -7.3209 H             1 RES     
    9457 C           15.6552     0.2903    -8.8071 C             1 RES     
    9458 H           16.5526     0.8290    -8.5027 H             1 RES     
    9459 H           14.8888     1.0031    -9.1116 H             1 RES     
    9460 C           15.9905    -0.6384    -9.9889 C             1 RES     
    9461 H           15.0931    -1.1770   -10.2934 H             1 RES     
    9462 H           16.7570    -1.3511    -9.6845 H             1 RES     
    9463 C           16.5108     0.2008   -11.1707 C             1 RES     
    9464 H           17.4082     0.7394   -10.8662 H             1 RES     
    9465 H           15.7444     0.9135   -11.4751 H             1 RES     
    9466 C           16.8461    -0.7279   -12.3525 C             1 RES     
    9467 H           15.9487    -1.2665   -12.6569 H             1 RES     
    9468 H           17.6125    -1.4407   -12.0480 H             1 RES     
    9469 C           17.3664     0.1113   -13.5343 C             1 RES     
    9470 H           18.2638     0.6499   -13.2298 H             1 RES     
    9471 H           16.6000     0.8240   -13.8387 H             1 RES     
    9472 C           17.6865    -0.7753   -14.6623 C             1 RES     
    9473 H           18.6865    -0.8799   -14.2964 H             1 RES     
    9474 H           17.7040    -0.6872   -15.7287 H             1 RES     
    9475 H           17.1129    -1.6356   -14.3848 H             1 RES     
    9476 C           27.6579    28.1422     2.9339 C             1 RES     
    9477 O           27.4842    29.3599     2.9370 O             1 RES     
    9478 O           27.3861    27.3861     4.0000 O             1 RES     
    9479 H           27.0576    27.9608     4.6953 H             1 RES     
    9480 C           28.1678    27.3913     1.8289 C             1 RES     
    9481 H           27.4339    26.6452     1.5245 H             1 RES     
    9482 H           29.0883    26.8932     2.1334 H             1 RES     
    9483 C           28.4614    28.3341     0.6471 C             1 RES     
    9484 H           29.1954    29.0802     0.9516 H             1 RES     
    9485 H           27.5410    28.8322     0.3427 H             1 RES     
    9486 C           29.0186    27.5189    -0.5346 C             1 RES     
    9487 H           28.2846    26.7727    -0.8391 H             1 RES     
    9488 H           29.9390    27.0207    -0.2302 H             1 RES     
    9489 C           29.3122    28.4616    -1.7164 C             1 RES     
    9490 H           30.0462    29.2077    -1.4120 H             1 RES     
    9491 H           28.3917    28.9597    -2.0209 H             1 RES     
    9492 C           29.8693    27.6464    -2.8982 C             1 RES     
    9493 H           29.1354    26.9002    -3.2026 H             1 RES     
    9494 H           30.7898    27.1482    -2.5938 H             1 RES     
    9495 C           30.1630    28.5891    -4.0800 C             1 RES     
    9496 H           30.8969    29.3353    -3.7755 H             1 RES     
    9497 H           29.2425    29.0873    -4.3844 H             1 RES     
    9498 C           30.7201    27.7739    -5.2618 C             1 RES     
    9499 H           29.9861    27.0278    -5.5662 H             1 RES     
    9500 H           31.6406    27.2758    -4.9573 H             1 RES     
    9501 C           31.0137    28.7166    -6.4436 C             1 RES     
    9502 H           31.7477    29.4628    -6.1391 H             1 RES     
    9503 H           30.0933    29.2148    -6.7480 H             1 RES     
    9504 C           31.5709    27.9014    -7.6253 C             1 RES     
    9505 H           30.8369    27.1553    -7.9298 H             1 RES     
    9506 H           32.4913    27.4033    -7.3209 H             1 RES     
    9507 C           31.8645    28.8442    -8.8071 C             1 RES     
    9508 H           32.5985    29.5903    -8.5027 H             1 RES     
    9509 H           30.9440    29.3423    -9.1116 H             1 RES     
    9510 C           32.4216    28.0290    -9.9889 C             1 RES     
    9511 H           31.6877    27.2828   -10.2934 H             1 RES     
    9512 H           33.3421    27.5308    -9.6845 H             1 RES     
    9513 C           32.7153    28.9717   -11.1707 C             1 RES     
    9514 H           33.4492    29.7178   -10.8662 H             1 RES     
    9515 H           31.7948    29.4698   -11.4751 H             1 RES     
    9516 C           33.2724    28.1565   -12.3525 C             1 RES     
    9517 H           32.5384    27.4103   -12.6569 H             1 RES     
    9518 H           34.1929    27.6583   -12.0480 H             1 RES     
    9519 C           33.5660    29.0992   -13.5343 C             1 RES     
    9520 H           34.3000    29.8454   -13.2298 H             1 RES     
    9521 H           32.6456    29.5974   -13.8387 H             1 RES     
    9522 C           34.0978    28.3211   -14.6623 C             1 RES     
    9523 H           35.0922    28.4701   -14.2964 H             1 RES     
    9524 H           34.0927    28.4107   -15.7287 H             1 RES     
    9525 H           33.7579    27.3445   -14.3848 H             1 RES     
    9526 C           38.8791    11.5508     2.9339 C             1 RES     
    9527 O           39.1807    12.7432     2.9370 O             1 RES     
    9528 O           38.3406    10.9545     4.0000 O             1 RES     
    9529 H           38.2548    11.6108     4.6953 H             1 RES     
    9530 C           39.0657    10.6625     1.8289 C             1 RES     
    9531 H           38.1034    10.2509     1.5245 H             1 RES     
    9532 H           39.7282     9.8522     2.1334 H             1 RES     
    9533 C           39.6953    11.4232     0.6471 C             1 RES     
    9534 H           40.6575    11.8348     0.9516 H             1 RES     
    9535 H           39.0328    12.2335     0.3427 H             1 RES     
    9536 C           39.9012    10.4575    -0.5346 C             1 RES     
    9537 H           38.9389    10.0459    -0.8391 H             1 RES     
    9538 H           40.5636     9.6472    -0.2302 H             1 RES     
    9539 C           40.5308    11.2182    -1.7164 C             1 RES     
    9540 H           41.4930    11.6298    -1.4120 H             1 RES     
    9541 H           39.8683    12.0285    -2.0209 H             1 RES     
    9542 C           40.7367    10.2525    -2.8982 C             1 RES     
    9543 H           39.7744     9.8409    -3.2026 H             1 RES     
    9544 H           41.3991     9.4422    -2.5938 H             1 RES     
    9545 C           41.3662    11.0132    -4.0800 C             1 RES     
    9546 H           42.3285    11.4248    -3.7755 H             1 RES     
    9547 H           40.7038    11.8235    -4.3844 H             1 RES     
    9548 C           41.5722    10.0475    -5.2618 C             1 RES     
    9549 H           40.6099     9.6359    -5.5662 H             1 RES     
    9550 H           42.2346     9.2372    -4.9573 H             1 RES     
    9551 C           42.2017    10.8082    -6.4436 C             1 RES     
    9552 H           43.1640    11.2198    -6.1391 H             1 RES     
    9553 H           41.5393    11.6185    -6.7480 H             1 RES     
    9554 C           42.4077     9.8425    -7.6253 C             1 RES     
    9555 H           41.4454     9.4309    -7.9298 H             1 RES     
    9556 H           43.0701     9.0322    -7.3209 H             1 RES     
    9557 C           43.0372    10.6032    -8.8071 C             1 RES     
    9558 H           43.9995    11.0148    -8.5027 H             1 RES     
    9559 H           42.3748    11.4135    -9.1116 H             1 RES     
    9560 C           43.2431     9.6375    -9.9889 C             1 RES     
    9561 H           42.2809     9.2258   -10.2934 H             1 RES     
    9562 H           43.9056     8.8272    -9.6845 H             1 RES     
    9563 C           43.8727    10.3982   -11.1707 C             1 RES     
    9564 H           44.8350    10.8098   -10.8662 H             1 RES     
    9565 H           43.2102    11.2085   -11.4751 H             1 RES     
    9566 C           44.0786     9.4325   -12.3525 C             1 RES     
    9567 H           43.1164     9.0208   -12.6569 H             1 RES     
    9568 H           44.7411     8.6222   -12.0480 H             1 RES     
    9569 C           44.7082    10.1932   -13.5343 C             1 RES     
    9570 H           45.6704    10.6048   -13.2298 H             1 RES     
    9571 H           44.0457    11.0035   -13.8387 H             1 RES     
    9572 C           44.9047     9.2714   -14.6623 C             1 RES     
    9573 H           45.8813     9.0318   -14.2964 H             1 RES     
    9574 H           44.9340     9.3563   -15.7287 H             1 RES     
    9575 H           44.2195     8.4970   -14.3848 H             1 RES     
    9576 C           16.9219    22.5455     2.9339 C             1 RES     
    9577 O           17.1295    23.7578     2.9370 O             1 RES     
    9578 O           16.4317    21.9089     4.0000 O             1 RES     
    9579 H           16.2949    22.5566     4.6953 H             1 RES     
    9580 C           17.1774    21.6745     1.8289 C             1 RES     
    9581 H           16.2502    21.1890     1.5245 H             1 RES     
    9582 H           17.9011    20.9184     2.1334 H             1 RES     
    9583 C           17.7456    22.4820     0.6471 C             1 RES     
    9584 H           18.6728    22.9675     0.9516 H             1 RES     
    9585 H           17.0219    23.2381     0.3427 H             1 RES     
    9586 C           18.0263    21.5353    -0.5346 C             1 RES     
    9587 H           17.0991    21.0498    -0.8391 H             1 RES     
    9588 H           18.7500    20.7792    -0.2302 H             1 RES     
    9589 C           18.5946    22.3428    -1.7164 C             1 RES     
    9590 H           19.5218    22.8284    -1.4120 H             1 RES     
    9591 H           17.8709    23.0989    -2.0209 H             1 RES     
    9592 C           18.8753    21.3962    -2.8982 C             1 RES     
    9593 H           17.9481    20.9107    -3.2026 H             1 RES     
    9594 H           19.5990    20.6401    -2.5938 H             1 RES     
    9595 C           19.4435    22.2037    -4.0800 C             1 RES     
    9596 H           20.3707    22.6892    -3.7755 H             1 RES     
    9597 H           18.7198    22.9598    -4.3844 H             1 RES     
    9598 C           19.7242    21.2570    -5.2618 C             1 RES     
    9599 H           18.7970    20.7715    -5.5662 H             1 RES     
    9600 H           20.4479    20.5009    -4.9573 H             1 RES     
    9601 C           20.2925    22.0646    -6.4436 C             1 RES     
    9602 H           21.2196    22.5501    -6.1391 H             1 RES     
    9603 H           19.5688    22.8207    -6.7480 H             1 RES     
    9604 C           20.5732    21.1179    -7.6253 C             1 RES     
    9605 H           19.6460    20.6324    -7.9298 H             1 RES     
    9606 H           21.2968    20.3618    -7.3209 H             1 RES     
    9607 C           21.1414    21.9254    -8.8071 C             1 RES     
    9608 H           22.0686    22.4109    -8.5027 H             1 RES     
    9609 H           20.4177    22.6815    -9.1116 H             1 RES     
    9610 C           21.4221    20.9787    -9.9889 C             1 RES     
    9611 H           20.4949    20.4932   -10.2934 H             1 RES     
    9612 H           22.1458    20.2226    -9.6845 H             1 RES     
    9613 C           21.9903    21.7863   -11.1707 C             1 RES     
    9614 H           22.9175    22.2718   -10.8662 H             1 RES     
    9615 H           21.2666    22.5424   -11.4751 H             1 RES     
    9616 C           22.2710    20.8396   -12.3525 C             1 RES     
    9617 H           21.3438    20.3541   -12.6569 H             1 RES     
    9618 H           22.9947    20.0835   -12.0480 H             1 RES     
    9619 C           22.8393    21.6471   -13.5343 C             1 RES     
    9620 H           23.7665    22.1326   -13.2298 H             1 RES     
    9621 H           22.1156    22.4032   -13.8387 H             1 RES     
    9622 C           23.1072    20.7435   -14.6623 C             1 RES     
    9623 H           24.0995    20.5808   -14.2964 H             1 RES     
    9624 H           23.1298    20.8304   -15.7287 H             1 RES     
    9625 H           22.4846    19.9179   -14.3848 H             1 RES     
    9626 C           11.4799    22.5168     2.9339 C             1 RES     
    9627 O           11.7556    23.7155     2.9370 O             1 RES     
    9628 O           10.9545    21.9089     4.0000 O             1 RES     
    9629 H           10.8545    22.5633     4.6953 H             1 RES     
    9630 C           11.6857    21.6327     1.8289 C             1 RES     
    9631 H           10.7326    21.2003     1.5245 H             1 RES     
    9632 H           12.3656    20.8370     2.1334 H             1 RES     
    9633 C           12.2987    22.4069     0.6471 C             1 RES     
    9634 H           13.2518    22.8393     0.9516 H             1 RES     
    9635 H           11.6188    23.2027     0.3427 H             1 RES     
    9636 C           12.5255    21.4459    -0.5346 C             1 RES     
    9637 H           11.5724    21.0135    -0.8391 H             1 RES     
    9638 H           13.2053    20.6502    -0.2302 H             1 RES     
    9639 C           13.1384    22.2201    -1.7164 C             1 RES     
    9640 H           14.0915    22.6525    -1.4120 H             1 RES     
    9641 H           12.4585    23.0158    -2.0209 H             1 RES     
    9642 C           13.3652    21.2591    -2.8982 C             1 RES     
    9643 H           12.4121    20.8267    -3.2026 H             1 RES     
    9644 H           14.0451    20.4633    -2.5938 H             1 RES     
    9645 C           13.9781    22.0332    -4.0800 C             1 RES     
    9646 H           14.9312    22.4656    -3.7755 H             1 RES     
    9647 H           13.2983    22.8290    -4.3844 H             1 RES     
    9648 C           14.2049    21.0722    -5.2618 C             1 RES     
    9649 H           13.2518    20.6398    -5.5662 H             1 RES     
    9650 H           14.8848    20.2765    -4.9573 H             1 RES     
    9651 C           14.8179    21.8464    -6.4436 C             1 RES     
    9652 H           15.7710    22.2788    -6.1391 H             1 RES     
    9653 H           14.1380    22.6421    -6.7480 H             1 RES     
    9654 C           15.0447    20.8854    -7.6253 C             1 RES     
    9655 H           14.0916    20.4530    -7.9298 H             1 RES     
    9656 H           15.7245    20.0896    -7.3209 H             1 RES     
    9657 C           15.6576    21.6595    -8.8071 C             1 RES     
    9658 H           16.6107    22.0919    -8.5027 H             1 RES     
    9659 H           14.9777    22.4553    -9.1116 H             1 RES     
    9660 C           15.8844    20.6985    -9.9889 C             1 RES     
    9661 H           14.9313    20.2661   -10.2934 H             1 RES     
    9662 H           16.5643    19.9028    -9.6845 H             1 RES     
    9663 C           16.4973    21.4727   -11.1707 C             1 RES     
    9664 H           17.4504    21.9051   -10.8662 H             1 RES     
    9665 H           15.8175    22.2684   -11.4751 H             1 RES     
    9666 C           16.7241    20.5117   -12.3525 C             1 RES     
    9667 H           15.7710    20.0793   -12.6569 H             1 RES     
    9668 H           17.4040    19.7159   -12.0480 H             1 RES     
    9669 C           17.3371    21.2858   -13.5343 C             1 RES     
    9670 H           18.2902    21.7182   -13.2298 H             1 RES     
    9671 H           16.6572    22.0816   -13.8387 H             1 RES     
    9672 C           17.5536    20.3685   -14.6623 C             1 RES     
    9673 H           18.5350    20.1501   -14.2964 H             1 RES     
    9674 H           17.5810    20.4540   -15.7287 H             1 RES     
    9675 H           16.8853    19.5794   -14.3848 H             1 RES     
    9676 C           22.1674    39.1013     2.9339 C             1 RES     
    9677 O           21.9725    40.3158     2.9370 O             1 RES     
    9678 O           21.9089    38.3406     4.0000 O             1 RES     
    9679 H           21.5704    38.9094     4.6953 H             1 RES     
    9680 C           22.6904    38.3594     1.8289 C             1 RES     
    9681 H           21.9696    37.6006     1.5245 H             1 RES     
    9682 H           23.6194    37.8775     2.1334 H             1 RES     
    9683 C           22.9675    39.3072     0.6471 C             1 RES     
    9684 H           23.6883    40.0660     0.9516 H             1 RES     
    9685 H           22.0384    39.7892     0.3427 H             1 RES     
    9686 C           23.5388    38.5018    -0.5346 C             1 RES     
    9687 H           22.8180    37.7430    -0.8391 H             1 RES     
    9688 H           24.4678    38.0199    -0.2302 H             1 RES     
    9689 C           23.8159    39.4496    -1.7164 C             1 RES     
    9690 H           24.5367    40.2084    -1.4120 H             1 RES     
    9691 H           22.8868    39.9315    -2.0209 H             1 RES     
    9692 C           24.3872    38.6442    -2.8982 C             1 RES     
    9693 H           23.6664    37.8854    -3.2026 H             1 RES     
    9694 H           25.3162    38.1622    -2.5938 H             1 RES     
    9695 C           24.6643    39.5919    -4.0800 C             1 RES     
    9696 H           25.3851    40.3508    -3.7755 H             1 RES     
    9697 H           23.7352    40.0739    -4.3844 H             1 RES     
    9698 C           25.2356    38.7866    -5.2618 C             1 RES     
    9699 H           24.5148    38.0277    -5.5662 H             1 RES     
    9700 H           26.1646    38.3046    -4.9573 H             1 RES     
    9701 C           25.5127    39.7343    -6.4436 C             1 RES     
    9702 H           26.2335    40.4932    -6.1391 H             1 RES     
    9703 H           24.5836    40.2163    -6.7480 H             1 RES     
    9704 C           26.0840    38.9290    -7.6253 C             1 RES     
    9705 H           25.3632    38.1701    -7.9298 H             1 RES     
    9706 H           27.0130    38.4470    -7.3209 H             1 RES     
    9707 C           26.3611    39.8767    -8.8071 C             1 RES     
    9708 H           27.0819    40.6356    -8.5027 H             1 RES     
    9709 H           25.4321    40.3587    -9.1116 H             1 RES     
    9710 C           26.9324    39.0714    -9.9889 C             1 RES     
    9711 H           26.2116    38.3125   -10.2934 H             1 RES     
    9712 H           27.8614    38.5894    -9.6845 H             1 RES     
    9713 C           27.2095    40.0191   -11.1707 C             1 RES     
    9714 H           27.9303    40.7779   -10.8662 H             1 RES     
    9715 H           26.2805    40.5011   -11.4751 H             1 RES     
    9716 C           27.7808    39.2137   -12.3525 C             1 RES     
    9717 H           27.0600    38.4549   -12.6569 H             1 RES     
    9718 H           28.7098    38.7318   -12.0480 H             1 RES     
    9719 C           28.0579    40.1615   -13.5343 C             1 RES     
    9720 H           28.7787    40.9203   -13.2298 H             1 RES     
    9721 H           27.1289    40.6434   -13.8387 H             1 RES     
    9722 C           28.6032    39.3927   -14.6623 C             1 RES     
    9723 H           29.5948    39.5591   -14.2964 H             1 RES     
    9724 H           28.5965    39.4823   -15.7287 H             1 RES     
    9725 H           28.2804    38.4104   -14.3848 H             1 RES     
    9726 C           16.9077    44.4651     2.9339 C             1 RES     
    9727 O           17.0882    45.6818     2.9370 O             1 RES     
    9728 O           16.4317    43.8178     4.0000 O             1 RES     
    9729 H           16.2805    44.4623     4.6953 H             1 RES     
    9730 C           17.1824    43.6000     1.8289 C             1 RES     
    9731 H           16.2663    43.0940     1.5245 H             1 RES     
    9732 H           17.9228    42.8602     2.1334 H             1 RES     
    9733 C           17.7325    44.4200     0.6471 C             1 RES     
    9734 H           18.6487    44.9260     0.9516 H             1 RES     
    9735 H           16.9922    45.1598     0.3427 H             1 RES     
    9736 C           18.0343    43.4798    -0.5346 C             1 RES     
    9737 H           17.1181    42.9738    -0.8391 H             1 RES     
    9738 H           18.7746    42.7400    -0.2302 H             1 RES     
    9739 C           18.5844    44.2998    -1.7164 C             1 RES     
    9740 H           19.5005    44.8058    -1.4120 H             1 RES     
    9741 H           17.8440    45.0396    -2.0209 H             1 RES     
    9742 C           18.8861    43.3596    -2.8982 C             1 RES     
    9743 H           17.9699    42.8536    -3.2026 H             1 RES     
    9744 H           19.6264    42.6198    -2.5938 H             1 RES     
    9745 C           19.4362    44.1796    -4.0800 C             1 RES     
    9746 H           20.3524    44.6856    -3.7755 H             1 RES     
    9747 H           18.6959    44.9194    -4.3844 H             1 RES     
    9748 C           19.7379    43.2394    -5.2618 C             1 RES     
    9749 H           18.8218    42.7334    -5.5662 H             1 RES     
    9750 H           20.4783    42.4996    -4.9573 H             1 RES     
    9751 C           20.2880    44.0594    -6.4436 C             1 RES     
    9752 H           21.2042    44.5654    -6.1391 H             1 RES     
    9753 H           19.5477    44.7992    -6.7480 H             1 RES     
    9754 C           20.5897    43.1192    -7.6253 C             1 RES     
    9755 H           19.6736    42.6132    -7.9298 H             1 RES     
    9756 H           21.3301    42.3794    -7.3209 H             1 RES     
    9757 C           21.1399    43.9392    -8.8071 C             1 RES     
    9758 H           22.0560    44.4452    -8.5027 H             1 RES     
    9759 H           20.3995    44.6790    -9.1116 H             1 RES     
    9760 C           21.4416    42.9990    -9.9889 C             1 RES     
    9761 H           20.5254    42.4929   -10.2934 H             1 RES     
    9762 H           22.1819    42.2592    -9.6845 H             1 RES     
    9763 C           21.9917    43.8190   -11.1707 C             1 RES     
    9764 H           22.9078    44.3250   -10.8662 H             1 RES     
    9765 H           21.2513    44.5588   -11.4751 H             1 RES     
    9766 C           22.2934    42.8788   -12.3525 C             1 RES     
    9767 H           21.3772    42.3727   -12.6569 H             1 RES     
    9768 H           23.0337    42.1390   -12.0480 H             1 RES     
    9769 C           22.8435    43.6987   -13.5343 C             1 RES     
    9770 H           23.7597    44.2048   -13.2298 H             1 RES     
    9771 H           22.1032    44.4385   -13.8387 H             1 RES     
    9772 C           23.1315    42.8013   -14.6623 C             1 RES     
    9773 H           24.1271    42.6608   -14.2964 H             1 RES     
    9774 H           23.1521    42.8887   -15.7287 H             1 RES     
    9775 H           22.5274    41.9621   -14.3848 H             1 RES     
    9776 C            0.4086     6.1690     2.9339 C             1 RES     
    9777 O            0.4661     7.3977     2.9370 O             1 RES     
    9778 O            0.0000     5.4772     4.0000 O             1 RES     
    9779 H           -0.2151     6.1033     4.6953 H             1 RES     
    9780 C            0.7688     5.3359     1.8289 C             1 RES     
    9781 H           -0.0919     4.7405     1.5245 H             1 RES     
    9782 H            1.5797     4.6742     2.1334 H             1 RES     
    9783 C            1.2338     6.2070     0.6471 C             1 RES     
    9784 H            2.0946     6.8024     0.9516 H             1 RES     
    9785 H            0.4230     6.8687     0.3427 H             1 RES     
    9786 C            1.6284     5.3018    -0.5346 C             1 RES     
    9787 H            0.7677     4.7064    -0.8391 H             1 RES     
    9788 H            2.4393     4.6401    -0.2302 H             1 RES     
    9789 C            2.0934     6.1729    -1.7164 C             1 RES     
    9790 H            2.9542     6.7683    -1.4120 H             1 RES     
    9791 H            1.2826     6.8346    -2.0209 H             1 RES     
    9792 C            2.4880     5.2677    -2.8982 C             1 RES     
    9793 H            1.6273     4.6723    -3.2026 H             1 RES     
    9794 H            3.2989     4.6060    -2.5938 H             1 RES     
    9795 C            2.9530     6.1388    -4.0800 C             1 RES     
    9796 H            3.8138     6.7342    -3.7755 H             1 RES     
    9797 H            2.1422     6.8005    -4.3844 H             1 RES     
    9798 C            3.3476     5.2336    -5.2618 C             1 RES     
    9799 H            2.4869     4.6382    -5.5662 H             1 RES     
    9800 H            4.1585     4.5719    -4.9573 H             1 RES     
    9801 C            3.8126     6.1047    -6.4436 C             1 RES     
    9802 H            4.6734     6.7001    -6.1391 H             1 RES     
    9803 H            3.0018     6.7664    -6.7480 H             1 RES     
    9804 C            4.2072     5.1995    -7.6253 C             1 RES     
    9805 H            3.3465     4.6041    -7.9298 H             1 RES     
    9806 H            5.0181     4.5378    -7.3209 H             1 RES     
    9807 C            4.6722     6.0706    -8.8071 C             1 RES     
    9808 H            5.5329     6.6660    -8.5027 H             1 RES     
    9809 H            3.8613     6.7323    -9.1116 H             1 RES     
    9810 C            5.0668     5.1655    -9.9889 C             1 RES     
    9811 H            4.2061     4.5700   -10.2934 H             1 RES     
    9812 H            5.8777     4.5037    -9.6845 H             1 RES     
    9813 C            5.5318     6.0365   -11.1707 C             1 RES     
    9814 H            6.3925     6.6320   -10.8662 H             1 RES     
    9815 H            4.7209     6.6983   -11.4751 H             1 RES     
    9816 C            5.9264     5.1314   -12.3525 C             1 RES     
    9817 H            5.0656     4.5359   -12.6569 H             1 RES     
    9818 H            6.7372     4.4696   -12.0480 H             1 RES     
    9819 C            6.3914     6.0024   -13.5343 C             1 RES     
    9820 H            7.2521     6.5979   -13.2298 H             1 RES     
    9821 H            5.5805     6.6642   -13.8387 H             1 RES     
    9822 C            6.7680     5.1384   -14.6623 C             1 RES     
    9823 H            7.7727     5.0986   -14.2964 H             1 RES     
    9824 H            6.7798     5.2275   -15.7287 H             1 RES     
    9825 H            6.2512     4.2428   -14.3848 H             1 RES     
    9826 C           49.8418    17.0204     2.9339 C             1 RES     
    9827 O           50.1599    18.2086     2.9370 O             1 RES     
    9828 O           49.2950    16.4317     4.0000 O             1 RES     
    9829 H           49.2184    17.0892     4.6953 H             1 RES     
    9830 C           50.0160    16.1297     1.8289 C             1 RES     
    9831 H           49.0481    15.7315     1.5245 H             1 RES     
    9832 H           50.6671    15.3102     2.1334 H             1 RES     
    9833 C           50.6561    16.8815     0.6471 C             1 RES     
    9834 H           51.6240    17.2797     0.9516 H             1 RES     
    9835 H           50.0050    17.7010     0.3427 H             1 RES     
    9836 C           50.8486    15.9130    -0.5346 C             1 RES     
    9837 H           49.8807    15.5149    -0.8391 H             1 RES     
    9838 H           51.4997    15.0936    -0.2302 H             1 RES     
    9839 C           51.4887    16.6649    -1.7164 C             1 RES     
    9840 H           52.4566    17.0631    -1.4120 H             1 RES     
    9841 H           50.8376    17.4843    -2.0209 H             1 RES     
    9842 C           51.6811    15.6964    -2.8982 C             1 RES     
    9843 H           50.7132    15.2982    -3.2026 H             1 RES     
    9844 H           52.3322    14.8770    -2.5938 H             1 RES     
    9845 C           52.3212    16.4483    -4.0800 C             1 RES     
    9846 H           53.2891    16.8465    -3.7755 H             1 RES     
    9847 H           51.6701    17.2677    -4.3844 H             1 RES     
    9848 C           52.5137    15.4798    -5.2618 C             1 RES     
    9849 H           51.5458    15.0816    -5.5662 H             1 RES     
    9850 H           53.1648    14.6604    -4.9573 H             1 RES     
    9851 C           53.1538    16.2317    -6.4436 C             1 RES     
    9852 H           54.1217    16.6299    -6.1391 H             1 RES     
    9853 H           52.5027    17.0511    -6.7480 H             1 RES     
    9854 C           53.3462    15.2632    -7.6253 C             1 RES     
    9855 H           52.3783    14.8650    -7.9298 H             1 RES     
    9856 H           53.9973    14.4437    -7.3209 H             1 RES     
    9857 C           53.9863    16.0150    -8.8071 C             1 RES     
    9858 H           54.9542    16.4132    -8.5027 H             1 RES     
    9859 H           53.3352    16.8345    -9.1116 H             1 RES     
    9860 C           54.1788    15.0466    -9.9889 C             1 RES     
    9861 H           53.2109    14.6484   -10.2934 H             1 RES     
    9862 H           54.8299    14.2271    -9.6845 H             1 RES     
    9863 C           54.8189    15.7984   -11.1707 C             1 RES     
    9864 H           55.7868    16.1966   -10.8662 H             1 RES     
    9865 H           54.1678    16.6179   -11.4751 H             1 RES     
    9866 C           55.0113    14.8299   -12.3525 C             1 RES     
    9867 H           54.0434    14.4318   -12.6569 H             1 RES     
    9868 H           55.6624    14.0105   -12.0480 H             1 RES     
    9869 C           55.6514    15.5818   -13.5343 C             1 RES     
    9870 H           56.6193    15.9800   -13.2298 H             1 RES     
    9871 H           55.0003    16.4012   -13.8387 H             1 RES     
    9872 C           55.8351    14.6573   -14.6623 C             1 RES     
    9873 H           56.8082    14.4042   -14.2964 H             1 RES     
    9874 H           55.8656    14.7418   -15.7287 H             1 RES     
    9875 H           55.1392    13.8926   -14.3848 H             1 RES     
    9876 C           27.9014    17.0482     2.9339 C             1 RES     
    9877 O           28.1570    18.2513     2.9370 O             1 RES     
    9878 O           27.3861    16.4317     4.0000 O             1 RES     
    9879 H           27.2752    17.0843     4.6953 H             1 RES     
    9880 C           28.1219    16.1677     1.8289 C             1 RES     
    9881 H           27.1761    15.7195     1.5245 H             1 RES     
    9882 H           28.8149    15.3834     2.1334 H             1 RES     
    9883 C           28.7219    16.9520     0.6471 C             1 RES     
    9884 H           29.6676    17.4002     0.9516 H             1 RES     
    9885 H           28.0288    17.7363     0.3427 H             1 RES     
    9886 C           28.9647    15.9949    -0.5346 C             1 RES     
    9887 H           28.0189    15.5467    -0.8391 H             1 RES     
    9888 H           29.6577    15.2106    -0.2302 H             1 RES     
    9889 C           29.5646    16.7792    -1.7164 C             1 RES     
    9890 H           30.5104    17.2274    -1.4120 H             1 RES     
    9891 H           28.8716    17.5635    -2.0209 H             1 RES     
    9892 C           29.8074    15.8221    -2.8982 C             1 RES     
    9893 H           28.8616    15.3739    -3.2026 H             1 RES     
    9894 H           30.5004    15.0378    -2.5938 H             1 RES     
    9895 C           30.4073    16.6063    -4.0800 C             1 RES     
    9896 H           31.3531    17.0545    -3.7755 H             1 RES     
    9897 H           29.7143    17.3906    -4.3844 H             1 RES     
    9898 C           30.6501    15.6492    -5.2618 C             1 RES     
    9899 H           29.7043    15.2010    -5.5662 H             1 RES     
    9900 H           31.3431    14.8649    -4.9573 H             1 RES     
    9901 C           31.2500    16.4335    -6.4436 C             1 RES     
    9902 H           32.1958    16.8817    -6.1391 H             1 RES     
    9903 H           30.5570    17.2178    -6.7480 H             1 RES     
    9904 C           31.4928    15.4764    -7.6253 C             1 RES     
    9905 H           30.5470    15.0282    -7.9298 H             1 RES     
    9906 H           32.1858    14.6921    -7.3209 H             1 RES     
    9907 C           32.0928    16.2607    -8.8071 C             1 RES     
    9908 H           33.0386    16.7089    -8.5027 H             1 RES     
    9909 H           31.3998    17.0450    -9.1116 H             1 RES     
    9910 C           32.3356    15.3036    -9.9889 C             1 RES     
    9911 H           31.3898    14.8554   -10.2934 H             1 RES     
    9912 H           33.0286    14.5193    -9.6845 H             1 RES     
    9913 C           32.9355    16.0878   -11.1707 C             1 RES     
    9914 H           33.8813    16.5360   -10.8662 H             1 RES     
    9915 H           32.2425    16.8721   -11.4751 H             1 RES     
    9916 C           33.1783    15.1307   -12.3525 C             1 RES     
    9917 H           32.2325    14.6825   -12.6569 H             1 RES     
    9918 H           33.8713    14.3464   -12.0480 H             1 RES     
    9919 C           33.7782    15.9150   -13.5343 C             1 RES     
    9920 H           34.7240    16.3632   -13.2298 H             1 RES     
    9921 H           33.0852    16.6993   -13.8387 H             1 RES     
    9922 C           34.0100    15.0014   -14.6623 C             1 RES     
    9923 H           34.9950    14.7994   -14.2964 H             1 RES     
    9924 H           34.0360    15.0874   -15.7287 H             1 RES     
    9925 H           33.3549    14.2013   -14.3848 H             1 RES     
    9926 Compound     0.0000     0.0000     0.0000 Compound      1 RES     
    9927 Compound     0.0000     0.0000     0.0000 Compound      1 RES     
@<TRIPOS>BOND
       1     8284     8285 1
       2     7864     7867 1
       3     6638     6641 1
       4     8807     8804 1
       5     9337     9336 1
       6     8104     8046 1
       7     7243     7246 1
       8     7747     7750 1
       9     3428     3432 1
      10      643      644 1
      11     6517     6518 1
      12     5143     5144 1
      13     4490     4492 1
      14     1378     1379 1
      15     5314     5315 1
      16      236      239 1
      17      483      484 1
      18     2282     2283 1
      19     5345     5346 1
      20     5949     5950 1
      21     8596     8597 1
      22     6493     6496 1
      23     8960     8963 1
      24     5583     5586 1
      25     6583     6585 1
      26     6407     6412 1
      27     1564     1566 1
      28     3317     3319 1
      29     6910     6912 1
      30     5206     5208 1
      31     7420     7422 1
      32     9310     9311 1
      33      724      725 1
      34     4396     4399 1
      35     7717     7718 1
      36     7783     7784 1
      37     2005     2006 1
      38     6520     6521 1
      39     5610     5611 1
      40     8059     8060 1
      41     1535     1537 1
      42     5961     5964 1
      43     6487     6490 1
      44     7942     7945 1
      45     3335     3338 1
      46     6438     6440 1
      47     1967     1969 1
      48      680      682 1
      49     5595     5598 1
      50     6194     6197 1
      51     8726     8730 1
      52     1483     1486 1
      53     6620     6623 1
      54     3671     3672 1
      55     1314     1317 1
      56     7079     7080 1
      57     8704     8706 1
      58     1937     1939 1
      59     3267     3268 1
      60     7819     7821 1
      61     6955     6956 1
      62     3717     3723 1
      63     5421     5427 1
      64     9469     9472 1
      65     8293     8295 1
      66     3683     3684 1
      67     2450     2451 1
      68     2260     2261 1
      69     3314     3315 1
      70     8928     8929 1
      71     9039     9040 1
      72     1701     1702 1
      73     9151     9154 1
      74     8548     8491 1
      75     9689     9690 1
      76     1362     1364 1
      77     1860     1861 1
      78     3520     3522 1
      79     3013     3007 1
      80     5496     5497 1
      81     3489     3491 1
      82     2097     2099 1
      83     9269     9271 1
      84     6293     6295 1
      85     6818     6821 1
      86     9495     9498 1
      87     6206     6203 1
      88     6836     6839 1
      89     3212     3214 1
      90     7537     7479 1
      91     9710     9713 1
      92       78       79 1
      93     6351     6352 1
      94     9326     9330 1
      95      909      912 1
      96     5958     5960 1
      97     6387     6390 1
      98     7405     7407 1
      99     2659     2661 1
     100     3862     3864 1
     101      393      395 1
     102     7642     7645 1
     103     4051     4053 1
     104     8730     8733 1
     105     5097     5100 1
     106     4493     4496 1
     107     9526     9530 1
     108     9783     9784 1
     109     9210     9211 1
     110     8536     8537 1
     111     9066     9069 1
     112     1196     1198 1
     113     8584     8586 1
     114     2140     2143 1
     115     8230     8172 1
     116     1211     1214 1
     117     4248     4251 1
     118     2360     2362 1
     119     3547     3548 1
     120     2573     2575 1
     121     6209     6211 1
     122     6178     6180 1
     123     8665     8666 1
     124     2598     2601 1
     125     3746     3749 1
     126     4021     4024 1
     127     2323     2326 1
     128     9851     9854 1
     129      730      731 1
     130     9680     9681 1
     131     2445     2446 1
     132     6542     6545 1
     133      323      326 1
     134     3462     3465 1
     135     2039     2042 1
     136     7711     7708 1
     137     7207     7204 1
     138      918      921 1
     139     4435     4437 1
     140     8464     8466 1
     141     3184     3186 1
     142     3634     3637 1
     143     7630     7633 1
     144     1668     1669 1
     145      758      760 1
     146     6279     6280 1
     147     6589     6590 1
     148       94       95 1
     149     6626     6627 1
     150     2399     2400 1
     151     4564     4565 1
     152     3141     3142 1
     153     8194     8195 1
     154     4714     4715 1
     155     2434     2435 1
     156     5480     5483 1
     157     6777     6778 1
     158      720      722 1
     159     6943     6945 1
     160      946      943 1
     161     9204     9206 1
     162     1390     1392 1
     163     9792     9794 1
     164     9072     9073 1
     165     7609     7612 1
     166     2557     2562 1
     167     1072     1075 1
     168     7834     7831 1
     169     5749     5752 1
     170      317      319 1
     171     2257     2258 1
     172      610      611 1
     173     5544     5547 1
     174     6684     6686 1
     175     4885     4887 1
     176     7101     7103 1
     177     5981     5986 1
     178     6070     6073 1
     179     4734     4737 1
     180     1178     1181 1
     181     8050     8053 1
     182     2251     2254 1
     183     3677     3680 1
     184     1190     1193 1
     185     3734     3737 1
     186     5006     5009 1
     187     6710     6713 1
     188     3581     3582 1
     189     4980     4983 1
     190     6841     6843 1
     191     2538     2540 1
     192     3961     3963 1
     193     1366     1367 1
     194     9707     9708 1
     195     5650     5653 1
     196     6870     6871 1
     197     4299     4301 1
     198     9254     9256 1
     199     1764     1766 1
     200     6870     6872 1
     201     8907     8910 1
     202      906      908 1
     203     3193     3195 1
     204     2876     2878 1
     205     6287     6289 1
     206     2163     2165 1
     207      115      112 1
     208     6163     6164 1
     209     4447     4449 1
     210     5082     5084 1
     211     5051     5053 1
     212     1714     1715 1
     213     7085     7086 1
     214     1619     1620 1
     215     6904     6907 1
     216     3925     3926 1
     217     3894     3895 1
     218     9298     9299 1
     219     1295     1296 1
     220     3556     3559 1
     221     3973     3976 1
     222     4810     4811 1
     223     7549     7550 1
     224     5985     5989 1
     225      144      147 1
     226     2764     2765 1
     227     3134     3135 1
     228     4187     4188 1
     229      170      172 1
     230     6801     6802 1
     231      996      997 1
     232     5079     5081 1
     233     7129     7130 1
     234     6265     6270 1
     235     4561     4566 1
     236     4202     4199 1
     237     4396     4398 1
     238     7009     7010 1
     239     9166     9167 1
     240     6459     6460 1
     241     7939     7942 1
     242      468      470 1
     243     9007     9010 1
     244     8789     8791 1
     245     7021     7024 1
     246     6212     6215 1
     247     3015     3016 1
     248     8860     8861 1
     249     4354     4355 1
     250     9063     9064 1
     251      353      354 1
     252     3251     3248 1
     253     4674     4671 1
     254     1729     1735 1
     255     4115     4117 1
     256     4305     4307 1
     257     5697     5699 1
     258     2169     2171 1
     259     9730     9732 1
     260     3592     3594 1
     261     2584     2586 1
     262     2804     2806 1
     263     1078     1075 1
     264     6254     6255 1
     265     5003     5004 1
     266     9651     9652 1
     267     6671     6672 1
     268     1311     1313 1
     269     1066     1068 1
     270     7915     7916 1
     271     8419     8420 1
     272     7411     7412 1
     273     8046     8047 1
     274     7948     7949 1
     275     8452     8453 1
     276     5505     5506 1
     277     9430     9431 1
     278     8550     8551 1
     279     2992     2993 1
     280     3341     3342 1
     281     7804     7806 1
     282       48       49 1
     283     8983     8986 1
     284     8596     8599 1
     285     6172     6174 1
     286     3970     3973 1
     287     5345     5348 1
     288     3990     3992 1
     289     1674     1675 1
     290     9592     9593 1
     291     4112     4109 1
     292     8869     8871 1
     293     2940     2942 1
     294     4332     4334 1
     295     1492     1493 1
     296      909      910 1
     297     3396     3397 1
     298     2317     2318 1
     299     3196     3197 1
     300     6134     6135 1
     301     6048     6049 1
     302     8926     8928 1
     303     4317     4314 1
     304      888      885 1
     305     4613     4615 1
     306     5839     5841 1
     307     4687     4688 1
     308      471      473 1
     309     9426     9430 1
     310      761      763 1
     311      779      780 1
     312     8269     8270 1
     313     3816     3813 1
     314     3402     3404 1
     315     8833     8835 1
     316     7180     7177 1
     317      109      111 1
     318     1498     1500 1
     319     6329     6331 1
     320     1115     1117 1
     321     5780     5783 1
     322     8816     8818 1
     323     9389     9391 1
     324     8287     8288 1
     325     5126     5128 1
     326       37       36 1
     327     5731     5733 1
     328     4302     4304 1
     329     1921     1918 1
     330     5468     5465 1
     331     1665     1667 1
     332     2459     2461 1
     333     3063     3065 1
     334     2873     2875 1
     335     6221     6223 1
     336     6190     6192 1
     337     2131     2144 1
     338     7605     7606 1
     339     8233     8176 1
     340     2659     2656 1
     341      927      930 1
     342     2335     2338 1
     343     8554     8557 1
     344     3789     3792 1
     345     5393     5395 1
     346     3586     3587 1
     347     6994     6995 1
     348     1973     1974 1
     349     7111     7114 1
     350     3674     3677 1
     351     9598     9599 1
     352     3891     3893 1
     353     5366     5369 1
     354      643      645 1
     355     6517     6519 1
     356     2613     2614 1
     357     2888     2889 1
     358     5256     5257 1
     359     2132     2134 1
     360     9422     9424 1
     361      801      803 1
     362      625      628 1
     363      862      865 1
     364     8983     8980 1
     365     6103     6106 1
     366     5686     5689 1
     367     3854     3857 1
     368     6855     6856 1
     369      187      188 1
     370     1097     1094 1
     371     6265     6262 1
     372     6879     6880 1
     373     6604     6605 1
     374     5444     5447 1
     375     2471     2473 1
     376     8326     8328 1
     377     8149     8150 1
     378     8653     8654 1
     379     3931     3933 1
     380     3414     3417 1
     381     7363     7366 1
     382     5151     5153 1
     383     8371     8374 1
     384     1060     1063 1
     385     8131     8128 1
     386     2245     2248 1
     387     9136     9139 1
     388     7318     7321 1
     389     2260     2262 1
     390     2450     2452 1
     391     3683     3685 1
     392     6502     6505 1
     393     6471     6474 1
     394     4163     4166 1
     395     7816     7818 1
     396     8320     8322 1
     397     3347     3350 1
     398     2825     2827 1
     399     4687     4692 1
     400     5774     5777 1
     401     8176     8177 1
     402     4867     4868 1
     403     3007     3008 1
     404     7216     7217 1
     405     4598     4599 1
     406     6546     6549 1
     407     7055     7058 1
     408     2193     2196 1
     409     2616     2619 1
     410      136      137 1
     411     4230     4232 1
     412      211      214 1
     413     6505     6508 1
     414     7375     7376 1
     415     8383     8384 1
     416     9510     9511 1
     417     4598     4601 1
     418     2828     2830 1
     419     3647     3649 1
     420     6042     6045 1
     421       91       92 1
     422     5091     5094 1
     423     3291     3292 1
     424     9860     9861 1
     425     7843     7846 1
     426     6444     6447 1
     427     5681     5694 1
     428     7339     7342 1
     429     1051     1054 1
     430     4647     4650 1
     431     7252     7255 1
     432     7276     7277 1
     433     2136     2137 1
     434      662      663 1
     435      574      577 1
     436     6586     6588 1
     437     4882     4884 1
     438     5406     5409 1
     439      541      544 1
     440       17       18 1
     441     2131     2132 1
     442     8335     8336 1
     443     7327     7328 1
     444     5989     5990 1
     445      843      845 1
     446     1514     1515 1
     447     7684     7685 1
     448     9239     9241 1
     449     3544     3546 1
     450     9742     9745 1
     451      365      367 1
     452     7036     7039 1
     453     1601     1604 1
     454     9766     9769 1
     455     4538     4541 1
     456     3115     3118 1
     457     9566     9568 1
     458     5891     5893 1
     459     3709     3711 1
     460     6166     6168 1
     461     8569     8571 1
     462     2665     2668 1
     463     8869     8872 1
     464     2634     2637 1
     465      982      985 1
     466     9886     9888 1
     467     3372     3375 1
     468     1680     1681 1
     469     7774     7771 1
     470     8356     8357 1
     471     3955     3956 1
     472     1220     1223 1
     473     2532     2533 1
     474     8695     8696 1
     475      163      167 1
     476     5795     5797 1
     477     4366     4368 1
     478     4508     4511 1
     479     3764     3767 1
     480     8942     8944 1
     481     4496     4498 1
     482     5824     5827 1
     483     4885     4888 1
     484     7507     7508 1
     485     8011     8012 1
     486      912      915 1
     487     6688     6691 1
     488     4984     4987 1
     489     2181     2183 1
     490     3604     3606 1
     491     6230     6232 1
     492     1656     1657 1
     493     1625     1626 1
     494     8872     8875 1
     495     7123     7120 1
     496     4076     4078 1
     497     7091     7092 1
     498     3876     3873 1
     499     6459     6461 1
     500     7009     7011 1
     501     9166     9168 1
     502     9360     9363 1
     503      202      204 1
     504      233      235 1
     505     4097     4099 1
     506     6882     6884 1
     507     6607     6609 1
     508     2918     2920 1
     509      420      422 1
     510     2051     2053 1
     511     4399     4401 1
     512     9198     9199 1
     513     3743     3744 1
     514     2320     2321 1
     515     2976     2978 1
     516     3982     3984 1
     517     1004     1005 1
     518     8590     8591 1
     519     9822     9824 1
     520     5308     5309 1
     521      810      813 1
     522     7353     7354 1
     523     7645     7648 1
     524     7621     7624 1
     525      492      489 1
     526     4175     4176 1
     527     2202     2203 1
     528     6844     6845 1
     529     6079     6082 1
     530     3656     3657 1
     531      880      881 1
     532     3625     3626 1
     533      807      808 1
     534     5012     5013 1
     535     4027     4030 1
     536     7969     7971 1
     537      874      869 1
     538     1381     1383 1
     539     1224     1227 1
     540     9072     9074 1
     541     3447     3449 1
     542     6583     6586 1
     543     9645     9647 1
     544     1834     1836 1
     545     6665     6667 1
     546     2024     2026 1
     547     6107     6112 1
     548     9451     9448 1
     549     1260     1257 1
     550     2196     2199 1
     551     9266     9268 1
     552     2973     2975 1
     553      124      126 1
     554     8986     8989 1
     555     7222     7223 1
     556     1224     1226 1
     557     9580     9583 1
     558     4632     4635 1
     559     1069     1072 1
     560     8786     8787 1
     561     8659     8662 1
     562     9513     9514 1
     563     3063     3066 1
     564     9304     9305 1
     565     5326     5329 1
     566     1714     1716 1
     567     1619     1621 1
     568     3344     3341 1
     569     7085     7087 1
     570      887      885 1
     571     6952     6955 1
     572     5163     5166 1
     573     9876     9880 1
     574     3544     3547 1
     575     8398     8400 1
     576     8038     8035 1
     577     8152     8154 1
     578     8656     8658 1
     579     7516     7519 1
     580     9572     9569 1
     581     9492     9493 1
     582     6391     6400 1
     583     8386     8388 1
     584     8795     8796 1
     585     9013     9010 1
     586     5293     5295 1
     587     8332     8335 1
     588     5085     5088 1
     589     4149     4150 1
     590     5384     5387 1
     591     7324     7327 1
     592     4535     4538 1
     593     3112     3115 1
     594     1761     1762 1
     595     2292     2294 1
     596     7378     7381 1
     597     5477     5479 1
     598     8854     8856 1
     599     4412     4414 1
     600     9636     9638 1
     601     4958     4960 1
     602     5508     5510 1
     603     6656     6658 1
     604     3712     3715 1
     605      148      149 1
     606      103      104 1
     607     3560     3561 1
     608     1579     1584 1
     609     1008     1009 1
     610     9478     9479 1
     611     1211     1208 1
     612     4848     4852 1
     613     4100     4103 1
     614     9086     9087 1
     615     6964     6965 1
     616     8713     8714 1
     617     1946     1947 1
     618     1915     1916 1
     619     4239     4242 1
     620     2816     2819 1
     621     1477     1479 1
     622     9857     9859 1
     623     8086     8089 1
     624     3181     3183 1
     625     5764     5761 1
     626      846      843 1
     627     3894     3897 1
     628     6925     6928 1
     629      822      824 1
     630      788      785 1
     631     8338     8339 1
     632     3937     3938 1
     633     6795     6796 1
     634     3508     3510 1
     635     2054     2056 1
     636     2689     2691 1
     637     6552     6555 1
     638     1990     1993 1
     639     6731     6734 1
     640      988      985 1
     641     9592     9594 1
     642     1445     1446 1
     643     9342     9345 1
     644     8572     8573 1
     645     4722     4725 1
     646     2558     2559 1
     647     9569     9570 1
     648     6169     6170 1
     649     9483     9485 1
     650     8410     8412 1
     651      462      464 1
     652     7906     7908 1
     653     5708     5711 1
     654     9407     9410 1
     655     5832     5823 1
     656     3526     3528 1
     657     6384     6386 1
     658     8146     8147 1
     659     8650     8651 1
     660     5653     5654 1
     661     6447     6448 1
     662      779      781 1
     663     8269     8271 1
     664     6891     6893 1
     665     2091     2093 1
     666     9748     9751 1
     667     7018     7021 1
     668     2060     2062 1
     669     2695     2697 1
     670     7252     7254 1
     671     3514     3516 1
     672     8260     8262 1
     673     8992     8993 1
     674     5058     5060 1
     675     2601     2604 1
     676     5178     5181 1
     677     9366     9363 1
     678     8431     8434 1
     679     9801     9802 1
     680     9804     9805 1
     681     1402     1403 1
     682      788      789 1
     683      819      820 1
     684     7595     7594 1
     685       54       55 1
     686     5003     5006 1
     687     5535     5536 1
     688     5118     5119 1
     689     5725     5726 1
     690     4931     4932 1
     691     3867     3868 1
     692     8842     8843 1
     693     1934     1935 1
     694     1150     1151 1
     695     1579     1580 1
     696     7933     7934 1
     697     1848     1849 1
     698      716      719 1
     699     5459     5460 1
     700     5184     5185 1
     701     7987     7990 1
     702     7483     7486 1
     703     6249     6262 1
     704      858      861 1
     705      341      338 1
     706     6943     6946 1
     707     9378     9379 1
     708     3918     3920 1
     709     5771     5774 1
     710     6375     6378 1
     711     8179     8182 1
     712     1749     1752 1
     713     1280     1282 1
     714     1298     1302 1
     715     5970     5971 1
     716     3338     3339 1
     717     7945     7946 1
     718     8449     8450 1
     719     2868     2875 1
     720     2683     2686 1
     721     4106     4109 1
     722     6000     6003 1
     723     6798     6801 1
     724     1474     1471 1
     725     6855     6852 1
     726     3641     3642 1
     727     9778     9776 1
     728     6160     6162 1
     729     4124     4126 1
     730     9351     9353 1
     731     6036     6037 1
     732     6067     6068 1
     733     8029     8030 1
     734     4157     4158 1
     735     9095     9097 1
     736     8539     8540 1
     737     5674     5676 1
     738     3717     3719 1
     739     9033     9036 1
     740      906      909 1
     741     3193     3196 1
     742     6870     6873 1
     743     1764     1767 1
     744       30       28 1
     745     7897     7900 1
     746     7393     7396 1
     747     8401     8404 1
     748     5984     5987 1
     749     4677     4679 1
     750     3254     3256 1
     751     8455     8457 1
     752     4363     4365 1
     753     2909     2911 1
     754     3121     3124 1
     755     2704     2707 1
     756     1344     1347 1
     757      507      509 1
     758      446      450 1
     759     3970     3971 1
     760     8783     8785 1
     761     7690     7691 1
     762     9869     9870 1
     763     7969     7970 1
     764     3749     3750 1
     765     6332     6333 1
     766     7186     7187 1
     767     5626     5629 1
     768     3280     3283 1
     769     3922     3925 1
     770     7465     7466 1
     771     6885     6888 1
     772     8365     8367 1
     773     8939     8941 1
     774     2520     2522 1
     775     2489     2491 1
     776     8344     8346 1
     777      285      298 1
     778     8883     8886 1
     779     4168     4166 1
     780     7459     7461 1
     781     5435     5437 1
     782      281      283 1
     783     3517     3518 1
     784     6200     6202 1
     785     8963     8965 1
     786     1455     1448 1
     787     1236     1238 1
     788     6276     6278 1
     789     3578     3581 1
     790     2680     2683 1
     791     4103     4106 1
     792     2039     2040 1
     793     9072     9069 1
     794     4447     4450 1
     795     8772     8775 1
     796     9730     9733 1
     797     4468     4471 1
     798     2584     2587 1
     799     3592     3595 1
     800     2169     2172 1
     801     2804     2807 1
     802     3221     3224 1
     803     6435     6438 1
     804     7834     7837 1
     805     2208     2211 1
     806     8780     8783 1
     807     8437     8440 1
     808     8335     8337 1
     809     7327     7329 1
     810     5989     5991 1
     811     1843     1846 1
     812     3758     3759 1
     813     5462     5463 1
     814     4622     4623 1
     815     3230     3231 1
     816     1863     1868 1
     817     9883     9885 1
     818     4653     4654 1
     819     5722     5723 1
     820     6137     6138 1
     821     2723     2729 1
     822     4659     4661 1
     823     5441     5443 1
     824     5728     5730 1
     825     1520     1522 1
     826     2124     2126 1
     827     2278     2280 1
     828      254      256 1
     829     3286     3288 1
     830     9372     9375 1
     831     6415     6411 1
     832      570      573 1
     833     9145     9146 1
     834      372      373 1
     835     1680     1682 1
     836     2841     2846 1
     837     8353     8354 1
     838      152      153 1
     839     8692     8693 1
     840     3952     3953 1
     841     2529     2530 1
     842     1356     1357 1
     843     3496     3499 1
     844     3619     3620 1
     845     3650     3651 1
     846     9228     9229 1
     847     2227     2228 1
     848     6904     6906 1
     849     1254     1255 1
     850     6629     6632 1
     851     3925     3927 1
     852     8509     8511 1
     853     7501     7503 1
     854     3894     3896 1
     855     8005     8007 1
     856     1934     1937 1
     857     1013     1011 1
     858     4293     4296 1
     859     1350     1353 1
     860     4882     4885 1
     861     6691     6693 1
     862     5305     5306 1
     863     1998     1999 1
     864     8701     8702 1
     865     1142     1143 1
     866     1903     1904 1
     867     1656     1658 1
     868     1625     1627 1
     869     7091     7093 1
     870     5465     5467 1
     871     1640     1642 1
     872     1242     1244 1
     873      735      736 1
     874     8143     8144 1
     875     1656     1659 1
     876     7091     7094 1
     877     2810     2813 1
     878     3564     3565 1
     879     5746     5747 1
     880     5268     5269 1
     881     5282     5283 1
     882     9198     9200 1
     883     3767     3768 1
     884     6302     6303 1
     885     6571     6572 1
     886     1004     1006 1
     887     6986     6987 1
     888     1008     1010 1
     889     2118     2121 1
     890     8158     8159 1
     891     7879     7880 1
     892     7654     7655 1
     893     1164     1171 1
     894     2045     2048 1
     895     6302     6305 1
     896     1495     1498 1
     897     9469     9471 1
     898     2607     2609 1
     899      341      343 1
     900      118      120 1
     901     3242     3244 1
     902     8901     8902 1
     903     7353     7355 1
     904     4638     4639 1
     905     4607     4608 1
     906     9495     9497 1
     907      474      476 1
     908     7046     7049 1
     909     7633     7636 1
     910     7408     7411 1
     911     9572     9574 1
     912     2801     2803 1
     913     8071     8073 1
     914     7567     7569 1
     915     5708     5710 1
     916      671      674 1
     917     5018     5020 1
     918     1874     1881 1
     919      368      370 1
     920     1721     1726 1
     921       72       73 1
     922     2677     2678 1
     923     7288     7231 1
     924     1866     1869 1
     925     2042     2044 1
     926     8983     8984 1
     927     9330     9331 1
     928     6534     6535 1
     929     8701     8704 1
     930     2715     2712 1
     931     6320     6317 1
     932     7330     7327 1
     933     2483     2480 1
     934     8476     8478 1
     935     5810     5812 1
     936     4036     4039 1
     937     3332     3335 1
     938     1320     1322 1
     939     9560     9561 1
     940     3027     3029 1
     941     5006     5007 1
     942     5054     5056 1
     943     1411     1412 1
     944     4577     4578 1
     945     1178     1180 1
     946     9772     9774 1
     947     2211     2213 1
     948     5484     5487 1
     949     8515     8516 1
     950     7381     7383 1
     951     9307     9309 1
     952     1456     1459 1
     953     4740     4741 1
     954     6372     6375 1
     955     4033     4036 1
     956      223      226 1
     957     3653     3656 1
     958     9692     9694 1
     959     2474     2477 1
     960     3622     3625 1
     961     7024     7026 1
     962     9754     9756 1
     963     3301     3294 1
     964     8338     8341 1
     965     3242     3245 1
     966     4508     4509 1
     967     1227     1228 1
     968     8305     8306 1
     969     3172     3174 1
     970     7723     7725 1
     971     5279     5280 1
     972     5172     5173 1
     973     7696     7697 1
     974     6392     6393 1
     975     9154     9155 1
     976     6200     6203 1
     977      943      944 1
     978     3828     3829 1
     979     2595     2596 1
     980     6997     6998 1
     981     1272     1273 1
     982     9630     9631 1
     983     6100     6101 1
     984     9116     9117 1
     985      964      966 1
     986     6694     6696 1
     987     6650     6651 1
     988     4314     4316 1
     989     1582     1585 1
     990     1335     1337 1
     991     6671     6674 1
     992     6254     6257 1
     993     8278     8279 1
     994     6245     6248 1
     995     5828     5831 1
     996     8972     8975 1
     997     4859     4860 1
     998     5048     5049 1
     999      428      431 1
    1000     7416     7417 1
    1001     9460     9461 1
    1002     1217     1218 1
    1003     9666     9668 1
    1004     1097     1100 1
    1005     9486     9488 1
    1006      365      368 1
    1007     7633     7634 1
    1008     9566     9569 1
    1009     8569     8572 1
    1010     5891     5894 1
    1011     6166     6169 1
    1012     2504     2445 1
    1013     8338     8335 1
    1014     5486     5427 1
    1015     7753     7754 1
    1016     8443     8444 1
    1017     2435     2439 1
    1018     3354     3357 1
    1019     9333     9335 1
    1020     8760     8762 1
    1021     8969     8971 1
    1022     9542     9544 1
    1023     5867     5869 1
    1024     1115     1118 1
    1025     9298     9301 1
    1026     8221     8224 1
    1027     5934     5936 1
    1028     6396     6398 1
    1029     5067     5070 1
    1030      332      335 1
    1031     2387     2388 1
    1032     6415     6416 1
    1033     7174     7175 1
    1034     8866     8867 1
    1035     3810     3811 1
    1036     1692     1695 1
    1037     9801     9803 1
    1038     1118     1119 1
    1039     1924     1927 1
    1040     6786     6789 1
    1041     6755     6758 1
    1042     3589     3592 1
    1043     6836     6838 1
    1044     4829     4834 1
    1045     4251     4253 1
    1046     2274     2273 1
    1047     1891     1888 1
    1048     9476     9477 1
    1049       14        1 1
    1050     7399     7402 1
    1051     9822     9825 1
    1052     6553     6557 1
    1053      202      205 1
    1054     2918     2921 1
    1055      233      236 1
    1056     4097     4100 1
    1057     6194     6195 1
    1058     3725     3728 1
    1059     1408     1409 1
    1060     2218     2220 1
    1061     2744     2743 1
    1062     7402     7403 1
    1063     3308     3309 1
    1064     1224     1225 1
    1065     2984     2985 1
    1066     6003     6004 1
    1067       63       64 1
    1068     4634     4575 1
    1069     6404     6405 1
    1070     4143     4149 1
    1071       78       75 1
    1072     1085     1087 1
    1073     7840     7842 1
    1074     7336     7338 1
    1075     1970     1972 1
    1076     2381     2382 1
    1077     4403     4404 1
    1078     5487     5488 1
    1079     3870     3871 1
    1080     5384     5385 1
    1081     7117     7118 1
    1082     2109     2112 1
    1083     4091     4093 1
    1084     2647     2650 1
    1085     1698     1700 1
    1086     6719     6721 1
    1087     9595     9598 1
    1088     6968     6971 1
    1089     5946     5948 1
    1090     6713     6716 1
    1091     5202     5200 1
    1092     3260     3263 1
    1093     1556     1559 1
    1094     4583     4586 1
    1095     3160     3163 1
    1096     5187     5190 1
    1097      958      961 1
    1098     4998     5001 1
    1099      173      232 1
    1100     1619     1622 1
    1101     7085     7088 1
    1102     6722     6725 1
    1103     8134     8135 1
    1104     8638     8639 1
    1105     5027     5028 1
    1106     4320     4322 1
    1107     4943     4944 1
    1108     4912     4913 1
    1109     4393     4394 1
    1110     6574     6576 1
    1111     5305     5307 1
    1112     1998     2000 1
    1113     8701     8703 1
    1114     1142     1144 1
    1115     1903     1905 1
    1116     7888     7890 1
    1117     8515     8518 1
    1118     2399     2401 1
    1119     8194     8196 1
    1120     6626     6628 1
    1121     4714     4716 1
    1122      127      129 1
    1123     5774     5776 1
    1124     8092     8095 1
    1125     2547     2550 1
    1126     3138     3141 1
    1127     5070     5073 1
    1128     5743     5745 1
    1129     2737     2740 1
    1130     6774     6777 1
    1131     1906     1907 1
    1132     1372     1373 1
    1133     2051     2054 1
    1134     4770     4771 1
    1135     2689     2686 1
    1136     5338     5339 1
    1137     4262     4263 1
    1138     6481     6482 1
    1139     4746     4747 1
    1140     9501     9504 1
    1141     7918     7861 1
    1142     3924     3865 1
    1143     7651     7652 1
    1144     8155     8156 1
    1145     6239     6240 1
    1146     7828     7829 1
    1147     8772     8773 1
    1148     3900     3901 1
    1149     2508     2509 1
    1150     7147     7148 1
    1151      866      867 1
    1152     4725     4726 1
    1153     3039     3040 1
    1154     5768     5769 1
    1155     6134     6141 1
    1156     7894     7897 1
    1157     7390     7393 1
    1158     5970     5973 1
    1159     1094     1095 1
    1160      462      465 1
    1161     6940     6942 1
    1162     1477     1480 1
    1163     9857     9860 1
    1164     3181     3184 1
    1165     7954     7956 1
    1166     5236     5238 1
    1167     2502     2504 1
    1168       25       26 1
    1169     9386     9388 1
    1170     3070     3073 1
    1171     7768     7771 1
    1172     4363     4366 1
    1173     4350     4291 1
    1174     9898     9900 1
    1175      257      259 1
    1176     1874     1876 1
    1177     3486     3488 1
    1178      378      380 1
    1179     6986     6993 1
    1180     5073     5075 1
    1181     4438     4440 1
    1182     9286     9287 1
    1183     9707     9709 1
    1184     9083     9085 1
    1185     9292     9294 1
    1186     7138     7141 1
    1187     3094     3097 1
    1188     9780     9776 1
    1189     3480     3482 1
    1190     2088     2090 1
    1191     4119     4128 1
    1192     6919     6921 1
    1193      220      222 1
    1194     1782     1784 1
    1195     2529     2531 1
    1196      152      154 1
    1197     7447     7444 1
    1198     6613     6615 1
    1199     8353     8355 1
    1200     8692     8694 1
    1201     3952     3954 1
    1202     1356     1358 1
    1203     9376     9378 1
    1204     2396     2399 1
    1205     8623     8625 1
    1206     5989     5995 1
    1207     7039     7042 1
    1208     1604     1607 1
    1209     7864     7866 1
    1210     9813     9816 1
    1211       17       22 1
    1212     6224     6226 1
    1213     3076     3078 1
    1214     5103     5105 1
    1215     8736     8738 1
    1216     6688     6675 1
    1217     8161     8164 1
    1218     3205     3208 1
    1219     5233     5235 1
    1220      184      186 1
    1221     7447     7449 1
    1222     7951     7953 1
    1223     6937     6939 1
    1224     6381     6383 1
    1225     1710     1711 1
    1226     4894     4895 1
    1227     4925     4926 1
    1228     4100     4101 1
    1229     3740     3741 1
    1230     4344     4345 1
    1231     1396     1397 1
    1232     9589     9590 1
    1233     1326     1328 1
    1234     3780     3781 1
    1235     5970     5965 1
    1236     1871     1877 1
    1237     1943     1944 1
    1238      317      318 1
    1239     8710     8711 1
    1240     3138     3139 1
    1241     1912     1913 1
    1242     6774     6775 1
    1243     8590     8593 1
    1244     5308     5311 1
    1245     2151     2155 1
    1246     4416     4418 1
    1247     6079     6081 1
    1248      411      413 1
    1249     7468     7470 1
    1250     7972     7974 1
    1251     8167     8168 1
    1252     6598     6600 1
    1253     8671     8672 1
    1254     5768     5770 1
    1255      428      430 1
    1256     1683     1685 1
    1257     4146     4153 1
    1258     1417     1420 1
    1259     5302     5305 1
    1260     4819     4821 1
    1261      995     1000 1
    1262     5009     5011 1
    1263     1421     1434 1
    1264     6571     6574 1
    1265     8347     8348 1
    1266     2523     2524 1
    1267     2492     2493 1
    1268     4789     4791 1
    1269     4154     4156 1
    1270     8311     8313 1
    1271     3060     3062 1
    1272     9560     9563 1
    1273       31       28 1
    1274     8983     8985 1
    1275      106      107 1
    1276     1495     1496 1
    1277     2770     2771 1
    1278     7744     7741 1
    1279      749      752 1
    1280     9489     9492 1
    1281     6960     6961 1
    1282     9060     9062 1
    1283     1547     1549 1
    1284     5589     5592 1
    1285     1822     1824 1
    1286     7003     7006 1
    1287     8813     8814 1
    1288     8494     8497 1
    1289      290      293 1
    1290      946      947 1
    1291     3471     3472 1
    1292     3502     3503 1
    1293     2079     2080 1
    1294     8766     8767 1
    1295     4206     4209 1
    1296     1810     1813 1
    1297     4427     4433 1
    1298     3508     3511 1
    1299     6641     6644 1
    1300     2289     2294 1
    1301     2447     2450 1
    1302     5734     5731 1
    1303     6833     6838 1
    1304     8939     8942 1
    1305     2520     2523 1
    1306     2489     2492 1
    1307     8344     8347 1
    1308     2076     2079 1
    1309     7960     7963 1
    1310     5598     5601 1
    1311      634      637 1
    1312      239      241 1
    1313     4508     4510 1
    1314     1227     1229 1
    1315     8305     8307 1
    1316     1504     1507 1
    1317     9404     9407 1
    1318     8242     8245 1
    1319     2447     2449 1
    1320     9369     9371 1
    1321     7852     7854 1
    1322     7348     7350 1
    1323      695      697 1
    1324     5024     5026 1
    1325      915      918 1
    1326     4900     4903 1
    1327      405      402 1
    1328     5520     5523 1
    1329     7049     7050 1
    1330     5406     5407 1
    1331     1106     1108 1
    1332     1384     1385 1
    1333     8041     7983 1
    1334     4157     4159 1
    1335     5441     5444 1
    1336     2124     2127 1
    1337     1520     1523 1
    1338     4583     4580 1
    1339     1314     1315 1
    1340     7990     7993 1
    1341     1393     1396 1
    1342     7486     7489 1
    1343     1375     1378 1
    1344     4856     4863 1
    1345     5398     5401 1
    1346     9110     9112 1
    1347     1257     1258 1
    1348     1130     1131 1
    1349     8092     8093 1
    1350     6123     6128 1
    1351     9410     9412 1
    1352     1492     1495 1
    1353     3320     3321 1
    1354     4610     4611 1
    1355     5801     5802 1
    1356     5209     5210 1
    1357     3196     3199 1
    1358     3187     3188 1
    1359      900      901 1
    1360     7423     7424 1
    1361     8383     8385 1
    1362     9510     9512 1
    1363     7375     7377 1
    1364     6391     6392 1
    1365     8065     8067 1
    1366     5616     5618 1
    1367     5647     5649 1
    1368     1181     1183 1
    1369     8083     8086 1
    1370       45       47 1
    1371     1576     1577 1
    1372     2879     2880 1
    1373     5212     5213 1
    1374      952      953 1
    1375     9839     9842 1
    1376     5474     5477 1
    1377     4045     4048 1
    1378     1732     1739 1
    1379      362      365 1
    1380     3302     3304 1
    1381     5160     5162 1
    1382     2131     2140 1
    1383     6864     6866 1
    1384     2289     2291 1
    1385     5925     5927 1
    1386     6577     6580 1
    1387      510      511 1
    1388     2961     2963 1
    1389     8676     8680 1
    1390      574      576 1
    1391     4644     4647 1
    1392     6565     6568 1
    1393     1470     1468 1
    1394     4351     4353 1
    1395     6922     6923 1
    1396     6299     6301 1
    1397     9430     9432 1
    1398     6983     6989 1
    1399     1828     1830 1
    1400     2405     2406 1
    1401     7867     7868 1
    1402     6632     6633 1
    1403      414      415 1
    1404     1801     1802 1
    1405     2955     2956 1
    1406     3073     3076 1
    1407     4378     4379 1
    1408     3586     3589 1
    1409     6601     6602 1
    1410     8845     8847 1
    1411     8215     8217 1
    1412     5493     5495 1
    1413      755      756 1
    1414     8424     8427 1
    1415     7920     7923 1
    1416     3297     3294 1
    1417     9157     9154 1
    1418     7000     6997 1
    1419     8038     8039 1
    1420     5931     5932 1
    1421     8542     8543 1
    1422     3021     3022 1
    1423     4444     4445 1
    1424     2746     2747 1
    1425     4169     4170 1
    1426      912      914 1
    1427     5447     5449 1
    1428     4897     4899 1
    1429     4928     4930 1
    1430     3496     3498 1
    1431      208      210 1
    1432     6983     6985 1
    1433     9089     9090 1
    1434     1309     1310 1
    1435     4419     4424 1
    1436     3619     3621 1
    1437     3650     3652 1
    1438     2227     2229 1
    1439      211      208 1
    1440     8056     8059 1
    1441     6336     6338 1
    1442     8807     8810 1
    1443     9380     9383 1
    1444     2746     2749 1
    1445      290      292 1
    1446     6184     6185 1
    1447     5995     5996 1
    1448     2094     2096 1
    1449     6650     6653 1
    1450     5580     5581 1
    1451     5027     5029 1
    1452     2063     2065 1
    1453      553      555 1
    1454     8916     8918 1
    1455     9216     9219 1
    1456      798      800 1
    1457     7246     7248 1
    1458     7750     7752 1
    1459     5042     5045 1
    1460     7312     7314 1
    1461     3100     3102 1
    1462     4523     4525 1
    1463     6391     6396 1
    1464     6538     6539 1
    1465     2069     2070 1
    1466     6423     6424 1
    1467     2625     2626 1
    1468     9710     9712 1
    1469     5274     5275 1
    1470     7726     7727 1
    1471      964      961 1
    1472     1396     1398 1
    1473     9589     9591 1
    1474     7381     7382 1
    1475     7678     7679 1
    1476     8778     8779 1
    1477     8182     8183 1
    1478     9307     9308 1
    1479     2792     2795 1
    1480     2356     2357 1
    1481     2350     2353 1
    1482     7825     7828 1
    1483     9319     9320 1
    1484     6481     6483 1
    1485     4262     4264 1
    1486     4746     4748 1
    1487       97      100 1
    1488      278      279 1
    1489     9622     9625 1
    1490     7903     7906 1
    1491     6265     6267 1
    1492     3734     3735 1
    1493     2311     2312 1
    1494     2161     2155 1
    1495     9326     9327 1
    1496     7456     7458 1
    1497     5242     5244 1
    1498     3215     3217 1
    1499     7132     7133 1
    1500     4894     4897 1
    1501     4925     4928 1
    1502     8494     8495 1
    1503      810      811 1
    1504     5202     5143 1
    1505     6906     6847 1
    1506     5169     5171 1
    1507     5175     5177 1
    1508     6968     6970 1
    1509     7924     7926 1
    1510     6120     6122 1
    1511     8428     8430 1
    1512     5410     5397 1
    1513     5048     5051 1
    1514      266      269 1
    1515     8104     8105 1
    1516     6151     6152 1
    1517     4692     4695 1
    1518      637      638 1
    1519     7600     7601 1
    1520     3441     3443 1
    1521     7064     7066 1
    1522     9186     9187 1
    1523     3280     3282 1
    1524     3752     3754 1
    1525     2329     2331 1
    1526     6885     6887 1
    1527     2353     2356 1
    1528     2746     2743 1
    1529     4734     4736 1
    1530     9354     9356 1
    1531     3036     3038 1
    1532     8089     8092 1
    1533     4242     4245 1
    1534     6276     6279 1
    1535     4206     4208 1
    1536     6740     6742 1
    1537     1205     1207 1
    1538     9636     9639 1
    1539     6656     6659 1
    1540     4819     4822 1
    1541     8341     8344 1
    1542     8854     8857 1
    1543     9836     9839 1
    1544     3915     3916 1
    1545     3946     3947 1
    1546     7162     7163 1
    1547     8487     8489 1
    1548     2970     2973 1
    1549      121      124 1
    1550     9263     9266 1
    1551     1184     1185 1
    1552      159      156 1
    1553     7567     7570 1
    1554      514      515 1
    1555     7642     7643 1
    1556     7111     7112 1
    1557     2492     2495 1
    1558     3674     3675 1
    1559     4838     4839 1
    1560     1616     1617 1
    1561     6925     6926 1
    1562      961      962 1
    1563     5190     5191 1
    1564     1989     2002 1
    1565     7756     7758 1
    1566     8077     8080 1
    1567     9619     9620 1
    1568      752      754 1
    1569     7702     7705 1
    1570     1559     1560 1
    1571     5690     5693 1
    1572     3144     3147 1
    1573      791      788 1
    1574     3746     3747 1
    1575     2598     2599 1
    1576     4021     4022 1
    1577     2323     2324 1
    1578     6009     6010 1
    1579     5819     5820 1
    1580     4151     4152 1
    1581     5402     5403 1
    1582     3357     3358 1
    1583     3326     3327 1
    1584     3106     3107 1
    1585     9716     9717 1
    1586     8380     8381 1
    1587     7372     7373 1
    1588     8880     8881 1
    1589     8978     8979 1
    1590     9507     9508 1
    1591     3051     3052 1
    1592     7416     7418 1
    1593     5048     5050 1
    1594     1217     1219 1
    1595     1063     1064 1
    1596     3378     3380 1
    1597     7450     7452 1
    1598     3347     3349 1
    1599     9739     9742 1
    1600     7840     7843 1
    1601     1970     1973 1
    1602     7336     7339 1
    1603     4853     4859 1
    1604     7135     7138 1
    1605      628      631 1
    1606     7052     7055 1
    1607     2465     2468 1
    1608     3888     3891 1
    1609     9607     9609 1
    1610     7282     7284 1
    1611     9854     9857 1
    1612     8146     8148 1
    1613     8650     8652 1
    1614     6928     6931 1
    1615     6978     6979 1
    1616     4873     4874 1
    1617     5499     5502 1
    1618     6296     6297 1
    1619     6021     6022 1
    1620     8851     8854 1
    1621     6269     6273 1
    1622     4085     4086 1
    1623     4054     4055 1
    1624      275      276 1
    1625     4323     4326 1
    1626     3517     3519 1
    1627      596      603 1
    1628     1027     1028 1
    1629     4731     4733 1
    1630     8017     8018 1
    1631     5335     5337 1
    1632     2758     2760 1
    1633     2789     2791 1
    1634     6410     6413 1
    1635     3698     3701 1
    1636     3538     3539 1
    1637     6861     6862 1
    1638     1840     1841 1
    1639     1146     1147 1
    1640     2674     2675 1
    1641     6345     6346 1
    1642      440      443 1
    1643     7495     7498 1
    1644     1069     1066 1
    1645     2726     2733 1
    1646      374      315 1
    1647     9045     9046 1
    1648     5260     5255 1
    1649     8194     8197 1
    1650     2399     2402 1
    1651     6626     6629 1
    1652     8191     8192 1
    1653     4404     4405 1
    1654     6623     6624 1
    1655     5798     5799 1
    1656     4995     4996 1
    1657       97       98 1
    1658     8901     8904 1
    1659     9392     9393 1
    1660     5157     5159 1
    1661     7960     7962 1
    1662     7618     7620 1
    1663     3100     3097 1
    1664     4813     4814 1
    1665     8131     8132 1
    1666     8635     8636 1
    1667     6320     6321 1
    1668     3070     3071 1
    1669     2715     2716 1
    1670     7477     7478 1
    1671     5677     5678 1
    1672     2740     2741 1
    1673     1489     1490 1
    1674     5260     5261 1
    1675     7981     7982 1
    1676      335      336 1
    1677     2755     2758 1
    1678     1112     1115 1
    1679     5242     5245 1
    1680     6067     6070 1
    1681     1511     1514 1
    1682     1248     1251 1
    1683     2909     2912 1
    1684     1535     1536 1
    1685     6426     6427 1
    1686     2341     2342 1
    1687     6018     6019 1
    1688      106      103 1
    1689     3082     3083 1
    1690     4474     4475 1
    1691     4505     4506 1
    1692     4199     4200 1
    1693      501      504 1
    1694     1309     1368 1
    1695     3441     3442 1
    1696     6849     6850 1
    1697     2776     2777 1
    1698     2779     2782 1
    1699     8584     8587 1
    1700     3671     3673 1
    1701     7079     7081 1
    1702     3302     3305 1
    1703     6864     6867 1
    1704     5160     5163 1
    1705     4677     4680 1
    1706     3254     3257 1
    1707     1314     1316 1
    1708     8290     8291 1
    1709     5148     5151 1
    1710     7786     7787 1
    1711     2885     2888 1
    1712     5984     5986 1
    1713     3879     3881 1
    1714     5974     5977 1
    1715     4758     4760 1
    1716        9        6 1
    1717     7126     7128 1
    1718     1233     1235 1
    1719     8353     8356 1
    1720     2529     2532 1
    1721     8692     8695 1
    1722     3952     3955 1
    1723     1257     1259 1
    1724     9736     9737 1
    1725     1568     1569 1
    1726     9163     9164 1
    1727     1985     1986 1
    1728     3598     3599 1
    1729     6184     6186 1
    1730     5580     5582 1
    1731     4687     4696 1
    1732     3042     3045 1
    1733     7690     7692 1
    1734     7186     7188 1
    1735     3749     3751 1
    1736     6332     6334 1
    1737     5548     5550 1
    1738     7465     7467 1
    1739     4834     4836 1
    1740     3822     3824 1
    1741     2326     2328 1
    1742     5716     5718 1
    1743      601      603 1
    1744     6568     6570 1
    1745     5659     5662 1
    1746     7240     7241 1
    1747     7744     7745 1
    1748     5511     5512 1
    1749     6305     6306 1
    1750     9436     9437 1
    1751     4227     4228 1
    1752     2557     2566 1
    1753     5842     5846 1
    1754     9036     9039 1
    1755      776      777 1
    1756      683      684 1
    1757     4906     4909 1
    1758     1517     1519 1
    1759     9210     9212 1
    1760     9783     9785 1
    1761     8536     8538 1
    1762      562      565 1
    1763     9483     9480 1
    1764     7270     7272 1
    1765     9595     9597 1
    1766     1650     1652 1
    1767     1921     1924 1
    1768     8218     8220 1
    1769      616      617 1
    1770     8083     8084 1
    1771     9628     9629 1
    1772     6934     6937 1
    1773      133      136 1
    1774     8848     8850 1
    1775     4786     4787 1
    1776     8416     8418 1
    1777     9480     9482 1
    1778     8587     8588 1
    1779     5145     5147 1
    1780     1057     1058 1
    1781     8992     8995 1
    1782     4834     4835 1
    1783     3683     3686 1
    1784     2260     2263 1
    1785      755      757 1
    1786     1284     1287 1
    1787     1674     1677 1
    1788     1514     1517 1
    1789     1156     1160 1
    1790      680      683 1
    1791     2931     2934 1
    1792     2900     2903 1
    1793     8038     8040 1
    1794     5931     5933 1
    1795     8542     8544 1
    1796     8296     8297 1
    1797     2030     2031 1
    1798     8620     8621 1
    1799     8116     8117 1
    1800      152      143 1
    1801     2483     2486 1
    1802     2557     2558 1
    1803     8227     8229 1
    1804     2072     2073 1
    1805     8161     8163 1
    1806      492      494 1
    1807     7549     7552 1
    1808     1405     1408 1
    1809     4810     4813 1
    1810     1701     1703 1
    1811       88       91 1
    1812     3287     3291 1
    1813     2876     2879 1
    1814     3130     3125 1
    1815     9086     9089 1
    1816      707      710 1
    1817     6836     6840 1
    1818     8904     8907 1
    1819      813      814 1
    1820     1022     1023 1
    1821     7279     7281 1
    1822     3030     3031 1
    1823     1172     1173 1
    1824     2428     2415 1
    1825     1906     1909 1
    1826     8158     8160 1
    1827     7879     7881 1
    1828     7654     7656 1
    1829     8530     8532 1
    1830     7522     7524 1
    1831     8026     8028 1
    1832     4619     4621 1
    1833     6354     6356 1
    1834     5529     5531 1
    1835     3227     3229 1
    1836     9910     9913 1
    1837     8617     8618 1
    1838     1098     1097 1
    1839     8113     8114 1
    1840     2592     2594 1
    1841      588      592 1
    1842     2066     2067 1
    1843     3783     3785 1
    1844     8722     8725 1
    1845     1248     1245 1
    1846     6798     6800 1
    1847     4554     4556 1
    1848     7073     7075 1
    1849     2013     2019 1
    1850     3909     3912 1
    1851     7156     7159 1
    1852     3940     3943 1
    1853     7396     7397 1
    1854     3720     3723 1
    1855     7900     7901 1
    1856     8404     8405 1
    1857      312      313 1
    1858     6444     6445 1
    1859     9576     9580 1
    1860     4613     4616 1
    1861      883      942 1
    1862     3480     3483 1
    1863     8745     8746 1
    1864     7297     7298 1
    1865     3085     3086 1
    1866     2653     2655 1
    1867     6287     6288 1
    1868     2021     2022 1
    1869     7363     7364 1
    1870     8371     8372 1
    1871     9178     9179 1
    1872     1060     1061 1
    1873     2988     2989 1
    1874     8416     8419 1
    1875     3332     3333 1
    1876     8494     8496 1
    1877     7399     7400 1
    1878     6616     6618 1
    1879     1785     1787 1
    1880     9616     9617 1
    1881     9054     9056 1
    1882     6647     6649 1
    1883     8407     8408 1
    1884     2257     2260 1
    1885     6097     6099 1
    1886     8179     8180 1
    1887     7171     7172 1
    1888     1749     1750 1
    1889     3776     3777 1
    1890     8104     8106 1
    1891     6151     6153 1
    1892      637      639 1
    1893     7600     7602 1
    1894     6818     6819 1
    1895      211      212 1
    1896     6369     6370 1
    1897     6644     6645 1
    1898     4940     4941 1
    1899     4030     4031 1
    1900     5274     5277 1
    1901     7909     7911 1
    1902     5088     5091 1
    1903     6061     6063 1
    1904     5480     5482 1
    1905      468      469 1
    1906     5647     5650 1
    1907     8065     8068 1
    1908      720      711 1
    1909     5616     5619 1
    1910     1181     1184 1
    1911     5526     5523 1
    1912      459      461 1
    1913     4641     4642 1
    1914       84       87 1
    1915     2903     2906 1
    1916     8155     8158 1
    1917     7651     7654 1
    1918     9622     9623 1
    1919     2257     2259 1
    1920      662      665 1
    1921      610      612 1
    1922      712      713 1
    1923     5671     5674 1
    1924     1804     1807 1
    1925     9042     9045 1
    1926     3276     3277 1
    1927     4635     4636 1
    1928     4604     4605 1
    1929     8329     8332 1
    1930     6245     6247 1
    1931     8933     8935 1
    1932     3018     3020 1
    1933      319      312 1
    1934     7555     7557 1
    1935     8395     8396 1
    1936     5828     5830 1
    1937     8972     8974 1
    1938     7387     7388 1
    1939     5870     5872 1
    1940     8550     8552 1
    1941     7882     7884 1
    1942     4861     4863 1
    1943     7378     7380 1
    1944      523      525 1
    1945     4558     4545 1
    1946     5406     5408 1
    1947     1434     1436 1
    1948     5039     5041 1
    1949     7294     7297 1
    1950     4474     4477 1
    1951     3051     3054 1
    1952      599      593 1
    1953     9433     9435 1
    1954     8224     8226 1
    1955     7681     7683 1
    1956     9689     9686 1
    1957     9076     9078 1
    1958       21       20 1
    1959     1755     1757 1
    1960     8185     8187 1
    1961     5321     5320 1
    1962      465      468 1
    1963     1036     1038 1
    1964     3862     3869 1
    1965     2431     2436 1
    1966     5490     5491 1
    1967     3564     3551 1
    1968     2755     2756 1
    1969     5398     5399 1
    1970     2462     2463 1
    1971     3885     3886 1
    1972     8431     8432 1
    1973      991      992 1
    1974     6314     6315 1
    1975     5178     5179 1
    1976     7927     7928 1
    1977      918      919 1
    1978     4903     4904 1
    1979     9660     9661 1
    1980     8866     8868 1
    1981     7174     7176 1
    1982     2387     2389 1
    1983     6415     6417 1
    1984     3810     3812 1
    1985     2764     2766 1
    1986     4187     4189 1
    1987     3134     3136 1
    1988     6801     6803 1
    1989      996      998 1
    1990       94       91 1
    1991     5731     5732 1
    1992     4302     4303 1
    1993     2063     2066 1
    1994     5755     5758 1
    1995     1572     1563 1
    1996       31       90 1
    1997     3586     3588 1
    1998     6994     6996 1
    1999     1973     1975 1
    2000     3190     3187 1
    2001     7983     7985 1
    2002     7432     7435 1
    2003     7479     7481 1
    2004     3360     3363 1
    2005     7936     7939 1
    2006      285      286 1
    2007     6481     6484 1
    2008     4746     4749 1
    2009     6864     6865 1
    2010     4813     4815 1
    2011     9422     9425 1
    2012      616      618 1
    2013     8083     8085 1
    2014     8587     8589 1
    2015     4786     4788 1
    2016     8389     8392 1
    2017     8290     8293 1
    2018     2984     2986 1
    2019     3308     3310 1
    2020     6003     6005 1
    2021     6404     6406 1
    2022     1770     1771 1
    2023     3418     3421 1
    2024      794      797 1
    2025     7780     7783 1
    2026     2224     2225 1
    2027     3616     3617 1
    2028     9013     9016 1
    2029     6426     6428 1
    2030     6561     6560 1
    2031     2305     2308 1
    2032     1952     1953 1
    2033     8719     8720 1
    2034     5203     5205 1
    2035     4688     4690 1
    2036     8298     8300 1
    2037     6907     6909 1
    2038      175      177 1
    2039     6533     6542 1
    2040     8161     8158 1
    2041     9554     9555 1
    2042     8053     8054 1
    2043     2752     2753 1
    2044     8557     8558 1
    2045     3422     3423 1
    2046     5974     5975 1
    2047     3668     3669 1
    2048     4444     4446 1
    2049     6978     6981 1
    2050     5372     5373 1
    2051     1430     1431 1
    2052     2214     2215 1
    2053     3021     3023 1
    2054      565      566 1
    2055     2746     2748 1
    2056     5607     5610 1
    2057     4169     4171 1
    2058       36       39 1
    2059     3145     3149 1
    2060      520      523 1
    2061      646      643 1
    2062     6342     6345 1
    2063     6861     6864 1
    2064     5157     5160 1
    2065     1127     1129 1
    2066     1628     1629 1
    2067     1568     1570 1
    2068     1985     1987 1
    2069     9163     9165 1
    2070     9736     9738 1
    2071     9613     9616 1
    2072     7772     7771 1
    2073     3598     3600 1
    2074     8263     8266 1
    2075     7759     7762 1
    2076     7816     7819 1
    2077     8320     8323 1
    2078     2825     2828 1
    2079     9416     9418 1
    2080      936      937 1
    2081     5148     5149 1
    2082     3492     3493 1
    2083     4048     4049 1
    2084      813      815 1
    2085     1022     1024 1
    2086     2631     2632 1
    2087     8487     8488 1
    2088     2662     2663 1
    2089     3865     3866 1
    2090     1837     1838 1
    2091     6858     6859 1
    2092     2442     2443 1
    2093     8830     8833 1
    2094     4227     4229 1
    2095      501      502 1
    2096     7615     7617 1
    2097     9889     9891 1
    2098     9426     9427 1
    2099      897      898 1
    2100      193      194 1
    2101      358      356 1
    2102     3728     3729 1
    2103     1187     1184 1
    2104     5558     5559 1
    2105     7429     7432 1
    2106     9233     9234 1
    2107     3453     3454 1
    2108     9892     9889 1
    2109     8647     8649 1
    2110     2103     2105 1
    2111     5279     5285 1
    2112     7657     7659 1
    2113     1347     1350 1
    2114     7396     7398 1
    2115     8404     8406 1
    2116     9539     9541 1
    2117     1208     1210 1
    2118     8500     8501 1
    2119     4175     4178 1
    2120     3625     3628 1
    2121     3656     3659 1
    2122     2202     2205 1
    2123     6844     6847 1
    2124      880      883 1
    2125     8795     8798 1
    2126     4550     4551 1
    2127     8575     8577 1
    2128     8143     8146 1
    2129     1825     1827 1
    2130     6058     6060 1
    2131     4323     4325 1
    2132     3375     3377 1
    2133     2431     2433 1
    2134     3384     3386 1
    2135     3854     3856 1
    2136     8008     8010 1
    2137      440      442 1
    2138     8512     8514 1
    2139     7504     7506 1
    2140     2547     2548 1
    2141     4160     4161 1
    2142      625      626 1
    2143     2737     2738 1
    2144     2841     2850 1
    2145     1054     1056 1
    2146     9701     9703 1
    2147       17       14 1
    2148     3267     3272 1
    2149     9013     9014 1
    2150     2854     2857 1
    2151     8203     8205 1
    2152     7195     7197 1
    2153     3414     3416 1
    2154     1798     1800 1
    2155     9101     9102 1
    2156      828      829 1
    2157     5604     5606 1
    2158     5635     5637 1
    2159     9345     9347 1
    2160     9604     9605 1
    2161     5563     5565 1
    2162      115      117 1
    2163     6366     6368 1
    2164     4215     4217 1
    2165     1692     1694 1
    2166     2761     2763 1
    2167     1263     1265 1
    2168     5586     5589 1
    2169     3134     3137 1
    2170      996      999 1
    2171     5681     5690 1
    2172     4335     4338 1
    2173      196      199 1
    2174     2943     2946 1
    2175     6381     6384 1
    2176     6702     6705 1
    2177     4190     4191 1
    2178     2767     2768 1
    2179     5416     5417 1
    2180     4408     4409 1
    2181     4172     4175 1
    2182     3964     3966 1
    2183     7012     7014 1
    2184     9383     9386 1
    2185     5015     5016 1
    2186     8506     8507 1
    2187     7498     7499 1
    2188     9180     9181 1
    2189     3357     3360 1
    2190     3030     3032 1
    2191     1172     1174 1
    2192     2779     2780 1
    2193     2175     2176 1
    2194     4404     4407 1
    2195     8482     8424 1
    2196     2495     2496 1
    2197     3918     3919 1
    2198     3949     3950 1
    2199     8945     8946 1
    2200     4067     4068 1
    2201     4671     4672 1
    2202     3248     3249 1
    2203     2610     2612 1
    2204     5832     5834 1
    2205     5122     5125 1
    2206     4749     4752 1
    2207     9733     9736 1
    2208     3595     3598 1
    2209     9726     9727 1
    2210     5858     5859 1
    2211     9533     9534 1
    2212     5668     5669 1
    2213     1332     1329 1
    2214     9101     9098 1
    2215     2196     2197 1
    2216     9757     9758 1
    2217     6549     6550 1
    2218     4106     4107 1
    2219     2683     2684 1
    2220     6000     6001 1
    2221     3393     3394 1
    2222      304      307 1
    2223     3295     3294 1
    2224     1798     1801 1
    2225     4650     4653 1
    2226     9183     9185 1
    2227     7645     7646 1
    2228     5114     5113 1
    2229     8745     8747 1
    2230     7297     7299 1
    2231     3085     3087 1
    2232     2928     2930 1
    2233      849      851 1
    2234     9207     9209 1
    2235     9780     9782 1
    2236     1069     1071 1
    2237     8659     8661 1
    2238     1671     1673 1
    2239     5592     5594 1
    2240     3848     3851 1
    2241     1372     1375 1
    2242     9089     9092 1
    2243     1547     1550 1
    2244     9616     9618 1
    2245     8356     8358 1
    2246     2532     2534 1
    2247     3955     3957 1
    2248     8695     8697 1
    2249     3233     3236 1
    2250     4625     4628 1
    2251     3202     3205 1
    2252     9648     9649 1
    2253     6668     6669 1
    2254      520      521 1
    2255     1556     1557 1
    2256      973      976 1
    2257     8398     8399 1
    2258      329      332 1
    2259     9778     9779 1
    2260     6837     6841 1
    2261     2292     2295 1
    2262     7690     7693 1
    2263     7465     7468 1
    2264     5716     5719 1
    2265     3822     3825 1
    2266     7186     7189 1
    2267     4135     4136 1
    2268     3737     3740 1
    2269     7969     7972 1
    2270     3712     3716 1
    2271     9869     9872 1
    2272     6317     6318 1
    2273      199      200 1
    2274     2712     2713 1
    2275     9319     9322 1
    2276     1275     1272 1
    2277     2008     2011 1
    2278      286      289 1
    2279     8413     8416 1
    2280     8913     8916 1
    2281      550      553 1
    2282     9878     9879 1
    2283     4146     4147 1
    2284     9236     9237 1
    2285     3387     3388 1
    2286     2036     2038 1
    2287     1211     1212 1
    2288     5245     5246 1
    2289     7963     7964 1
    2290     4335     4336 1
    2291     2912     2913 1
    2292     1559     1562 1
    2293     4248     4249 1
    2294     9283     9285 1
    2295     8482     8479 1
    2296     9348     9351 1
    2297      807      809 1
    2298     5012     5014 1
    2299     6423     6425 1
    2300     9310     9313 1
    2301      724      727 1
    2302     3937     3934 1
    2303     2689     2690 1
    2304     2054     2055 1
    2305     3508     3509 1
    2306     4172     4173 1
    2307     3166     3167 1
    2308     8951     8952 1
    2309      885      886 1
    2310     6813     6814 1
    2311     8620     8623 1
    2312     1341     1344 1
    2313     5571     5574 1
    2314     8572     8574 1
    2315     1445     1447 1
    2316     6169     6171 1
    2317     2558     2560 1
    2318     9569     9571 1
    2319      298      300 1
    2320     1205     1208 1
    2321     6048     6051 1
    2322     3743     3746 1
    2323     3804     3807 1
    2324     2320     2323 1
    2325     2381     2384 1
    2326     9880     9882 1
    2327     2021     2023 1
    2328     9098     9100 1
    2329      704      706 1
    2330     2420     2423 1
    2331     5943     5945 1
    2332     5931     5934 1
    2333      604      607 1
    2334     4731     4734 1
    2335     4909     4912 1
    2336     5780     5781 1
    2337     2755     2757 1
    2338     5398     5400 1
    2339     4477     4478 1
    2340     7120     7121 1
    2341     3054     3055 1
    2342     4595     4597 1
    2343     2695     2696 1
    2344     2060     2061 1
    2345     2091     2092 1
    2346     6891     6892 1
    2347     3272     3273 1
    2348     1628     1630 1
    2349     3514     3515 1
    2350     5992     5999 1
    2351     5375     5378 1
    2352     5801     5803 1
    2353     3320     3322 1
    2354     9392     9389 1
    2355     5209     5211 1
    2356     7423     7425 1
    2357     5468     5470 1
    2358     1863     1865 1
    2359     8795     8797 1
    2360     5499     5501 1
    2361      350      352 1
    2362     8851     8853 1
    2363     5574     5577 1
    2364     2891     2893 1
    2365     4976     4977 1
    2366     8284     8287 1
    2367     1146     1149 1
    2368     6580     6581 1
    2369     8632     8629 1
    2370     2570     2571 1
    2371     4348     4349 1
    2372     5711     5712 1
    2373     9007     9008 1
    2374     5296     5297 1
    2375     8578     8579 1
    2376     1275     1276 1
    2377     6206     6207 1
    2378     6175     6176 1
    2379     4138     4142 1
    2380     8149     8152 1
    2381     7366     7369 1
    2382     8653     8656 1
    2383     1451     1448 1
    2384     1927     1928 1
    2385     9136     9137 1
    2386     6716     6717 1
    2387     1695     1696 1
    2388     8683     8684 1
    2389     8801     8802 1
    2390     6030     6032 1
    2391     3848     3850 1
    2392     9080     9083 1
    2393     7495     7497 1
    2394     8503     8505 1
    2395     5354     5357 1
    2396     5505     5508 1
    2397     9789     9792 1
    2398      294      296 1
    2399     5317     5319 1
    2400     1706     1708 1
    2401     7867     7869 1
    2402     4486     4487 1
    2403     9716     9719 1
    2404     8380     8383 1
    2405     9507     9510 1
    2406     3299     3300 1
    2407     7372     7375 1
    2408     3094     3095 1
    2409     5577     5580 1
    2410     8880     8883 1
    2411     4517     4518 1
    2412     7129     7132 1
    2413     3977     3986 1
    2414     6523     6526 1
    2415     5919     5922 1
    2416     2363     2365 1
    2417     3755     3757 1
    2418     9833     9835 1
    2419     9260     9262 1
    2420     4554     4545 1
    2421     9892     9893 1
    2422     4665     4667 1
    2423     2311     2314 1
    2424     8898     8900 1
    2425     9198     9201 1
    2426     8689     8686 1
    2427     1553     1555 1
    2428     9066     9067 1
    2429     7542     7543 1
    2430      133      134 1
    2431     9716     9713 1
    2432     1468     1469 1
    2433     4870     4871 1
    2434      356      357 1
    2435     4221     4224 1
    2436     3141     3146 1
    2437     8726     8728 1
    2438     9192     9195 1
    2439     2822     2824 1
    2440     1847     1856 1
    2441     3610     3612 1
    2442     1254     1257 1
    2443     5653     5655 1
    2444     6447     6449 1
    2445     1517     1518 1
    2446     6952     6953 1
    2447     1486     1487 1
    2448     1508     1511 1
    2449     1214     1215 1
    2450     5752     5754 1
    2451     6146     6145 1
    2452     8099     8098 1
    2453     8152     8155 1
    2454     4178     4179 1
    2455     4209     4210 1
    2456     3152     3153 1
    2457     1637     1638 1
    2458     6052     6055 1
    2459     4575     4576 1
    2460     3015     3017 1
    2461     7021     7022 1
    2462     1437     1438 1
    2463     8182     8184 1
    2464     7678     7680 1
    2465     2356     2358 1
    2466     7243     7245 1
    2467     7747     7749 1
    2468     8548     8549 1
    2469     8044     8045 1
    2470     4546     4549 1
    2471     6360     6362 1
    2472      858      860 1
    2473     1529     1531 1
    2474     3363     3366 1
    2475     3301     3299 1
    2476     8276     8275 1
    2477     4181     4182 1
    2478     1958     1960 1
    2479     4212     4213 1
    2480     6429     6431 1
    2481     2278     2273 1
    2482     2964     2966 1
    2483     9257     9259 1
    2484     9830     9832 1
    2485     4387     4389 1
    2486     1834     1837 1
    2487     4876     4879 1
    2488     6580     6583 1
    2489      248      250 1
    2490     4752     4755 1
    2491     4039     4042 1
    2492     1758     1761 1
    2493      390      393 1
    2494     6112     6113 1
    2495     4825     4826 1
    2496     8068     8069 1
    2497      853      866 1
    2498     6565     6566 1
    2499     1202     1204 1
    2500      668      671 1
    2501     7627     7629 1
    2502     8933     8936 1
    2503     4202     4203 1
    2504     4233     4234 1
    2505      613      614 1
    2506     2278     2279 1
    2507      254      255 1
    2508     3286     3287 1
    2509     6203     6204 1
    2510      689      690 1
    2511     9307     9310 1
    2512     4311     4312 1
    2513     9013     9015 1
    2514     8539     8541 1
    2515     5039     5042 1
    2516     8704     8705 1
    2517     1937     1938 1
    2518     7819     7820 1
    2519      139      140 1
    2520     2150     2151 1
    2521     5786     5787 1
    2522     5566     5567 1
    2523     5132     5135 1
    2524     9130     9131 1
    2525      837      834 1
    2526     1788     1791 1
    2527     7978     7979 1
    2528      332      333 1
    2529     7474     7475 1
    2530     3314     3316 1
    2531     9039     9041 1
    2532     2069     2066 1
    2533     1169     1172 1
    2534     6818     6820 1
    2535     4151     4154 1
    2536     9904     9906 1
    2537     5535     5538 1
    2538     2387     2390 1
    2539     7174     7177 1
    2540     8866     8869 1
    2541     5118     5121 1
    2542     3810     3813 1
    2543     2764     2767 1
    2544     6801     6804 1
    2545     4187     4190 1
    2546     4564     4568 1
    2547      767      768 1
    2548     2779     2781 1
    2549     2175     2177 1
    2550     9195     9198 1
    2551     1640     1643 1
    2552     1242     1245 1
    2553     6281     6283 1
    2554     1501     1502 1
    2555     7642     7644 1
    2556     6563     6560 1
    2557     7162     7105 1
    2558     7479     7480 1
    2559     7983     7984 1
    2560     7603     7546 1
    2561     2749     2752 1
    2562     9551     9554 1
    2563     6749     6751 1
    2564     5690     5692 1
    2565     2468     2470 1
    2566     9104     9105 1
    2567     3144     3146 1
    2568     1480     1481 1
    2569     1511     1512 1
    2570     9572     9575 1
    2571     8665     8667 1
    2572     9516     9519 1
    2573     6468     6470 1
    2574     6499     6501 1
    2575     3308     3311 1
    2576     8506     8509 1
    2577     7498     7501 1
    2578     6972     6974 1
    2579      390      392 1
    2580     5471     5473 1
    2581     3529     3531 1
    2582     3344     3346 1
    2583     1740     1742 1
    2584     2619     2621 1
    2585     3578     3580 1
    2586     2650     2652 1
    2587     1866     1868 1
    2588      846      849 1
    2589     3138     3125 1
    2590     1292     1295 1
    2591     1279     1292 1
    2592     8626     8628 1
    2593     8122     8124 1
    2594     3425     3426 1
    2595     6833     6834 1
    2596     2002     2003 1
    2597     1776     1777 1
    2598     2949     2950 1
    2599     9242     9243 1
    2600     5453     5454 1
    2601     6502     6503 1
    2602     9451     9452 1
    2603     6638     6639 1
    2604     2879     2882 1
    2605     5212     5215 1
    2606     6471     6472 1
    2607     3776     3779 1
    2608     7636     7638 1
    2609     4085     4087 1
    2610     4054     4056 1
    2611      275      277 1
    2612     3755     3752 1
    2613     8383     8386 1
    2614     5836     5823 1
    2615     8644     8647 1
    2616     7048     6989 1
    2617     7798     7799 1
    2618     5903     5904 1
    2619     8581     8582 1
    2620     5299     5300 1
    2621     7294     7295 1
    2622     6030     6033 1
    2623     3840     3843 1
    2624     6589     6591 1
    2625       94       96 1
    2626     2434     2436 1
    2627     6039     6041 1
    2628     4740     4742 1
    2629     4348     4350 1
    2630     4157     4160 1
    2631      148      151 1
    2632     3560     3563 1
    2633     3314     3317 1
    2634     3444     3447 1
    2635     6357     6360 1
    2636     1724     1727 1
    2637     4270     4273 1
    2638     4227     4230 1
    2639     9628     9626 1
    2640     3819     3821 1
    2641     7966     7969 1
    2642     6684     6687 1
    2643     7101     7104 1
    2644     5843     5847 1
    2645     7534     7536 1
    2646     8892     8894 1
    2647     2715     2717 1
    2648     1489     1491 1
    2649     6320     6322 1
    2650     5166     5168 1
    2651      335      337 1
    2652     9472     9474 1
    2653     1816     1818 1
    2654     2807     2810 1
    2655     4094     4096 1
    2656     8260     8263 1
    2657     8986     8988 1
    2658     6258     6259 1
    2659     7042     7043 1
    2660     1607     1608 1
    2661     4459     4460 1
    2662     4172     4174 1
    2663     7345     7346 1
    2664     5966     5967 1
    2665     8361     8362 1
    2666     9366     9367 1
    2667     9580     9581 1
    2668     7849     7850 1
    2669     7857     7858 1
    2670     6904     6905 1
    2671     7192     7194 1
    2672     2233     2234 1
    2673     2420     2421 1
    2674     3436     3437 1
    2675     5529     5532 1
    2676     9663     9666 1
    2677     2592     2595 1
    2678     6526     6527 1
    2679     8819     8821 1
    2680     1952     1954 1
    2681     8719     8721 1
    2682     3737     3739 1
    2683     5922     5923 1
    2684     2286     2287 1
    2685     1323     1325 1
    2686     4064     4065 1
    2687     7753     7755 1
    2688     9022     9024 1
    2689     8907     8909 1
    2690     5981     5982 1
    2691      701      702 1
    2692     1788     1790 1
    2693     6336     6337 1
    2694     9057     9059 1
    2695     7120     7122 1
    2696     3272     3274 1
    2697     4477     4479 1
    2698     3054     3056 1
    2699     7801     7803 1
    2700     4308     4311 1
    2701     4288     4290 1
    2702     3873     3875 1
    2703     9542     9545 1
    2704     9333     9336 1
    2705     8760     8763 1
    2706     8969     8972 1
    2707     3560     3551 1
    2708     8998     9000 1
    2709     9298     9300 1
    2710     8533     8535 1
    2711     3556     3558 1
    2712     2550     2552 1
    2713      659      661 1
    2714     3973     3975 1
    2715     1295     1297 1
    2716      144      146 1
    2717     9413     9414 1
    2718     4274     4277 1
    2719       32       31 1
    2720      798      799 1
    2721     1308     1306 1
    2722     3535     3536 1
    2723     7525     7526 1
    2724      489      490 1
    2725     7192     7195 1
    2726     6695     6699 1
    2727     7708     7710 1
    2728     8212     8214 1
    2729     7204     7206 1
    2730     2570     2572 1
    2731     8578     8580 1
    2732     5296     5298 1
    2733     1275     1277 1
    2734     6206     6208 1
    2735     9007     9009 1
    2736     6175     6177 1
    2737     8689     8692 1
    2738     4280     4284 1
    2739     7894     7896 1
    2740     7390     7392 1
    2741     9442     9443 1
    2742     5517     5518 1
    2743     7330     7333 1
    2744      598      596 1
    2745     4967     4968 1
    2746     5293     5290 1
    2747     6707     6708 1
    2748     5734     5737 1
    2749     3118     3121 1
    2750       60       61 1
    2751     6094     6097 1
    2752      387      388 1
    2753     2897     2898 1
    2754     4595     4596 1
    2755     4320     4321 1
    2756      596      597 1
    2757     5230     5231 1
    2758     8876     8878 1
    2759     7231     7234 1
    2760     7735     7738 1
    2761     2508     2511 1
    2762     7828     7831 1
    2763     7147     7150 1
    2764     6348     6349 1
    2765     4490     4491 1
    2766     3900     3903 1
    2767     6239     6242 1
    2768     9154     9156 1
    2769     3931     3934 1
    2770     6997     6999 1
    2771     1088     1091 1
    2772     9576     9578 1
    2773     6254     6256 1
    2774     9651     9653 1
    2775     6671     6673 1
    2776     9172     9175 1
    2777     8356     8298 1
    2778     2979     2982 1
    2779     2562     2565 1
    2780     9610     9611 1
    2781       45       48 1
    2782     7519     7521 1
    2783     1019     1021 1
    2784       33       35 1
    2785     9713     9714 1
    2786     8377     8378 1
    2787     1284     1286 1
    2788     8023     8025 1
    2789     8919     8921 1
    2790     2782     2785 1
    2791     1492     1494 1
    2792     2317     2319 1
    2793     3196     3198 1
    2794     3396     3398 1
    2795     6134     6136 1
    2796     6048     6050 1
    2797     9757     9760 1
    2798      909      911 1
    2799     8116     8118 1
    2800     8620     8622 1
    2801      665      668 1
    2802     4064     4066 1
    2803     2837     2839 1
    2804     4450     4452 1
    2805      565      568 1
    2806     9048     9050 1
    2807     1169     1171 1
    2808     1299     1303 1
    2809     8904     8905 1
    2810      686      687 1
    2811     5290     5291 1
    2812     8816     8817 1
    2813     4441     4443 1
    2814     9389     9390 1
    2815     5798     5801 1
    2816       66       69 1
    2817     8524     8527 1
    2818      924      927 1
    2819     5459     5462 1
    2820     4178     4180 1
    2821     4209     4211 1
    2822     6595     6596 1
    2823     3552     3553 1
    2824      347      348 1
    2825     5740     5741 1
    2826     7213     7215 1
    2827     2616     2618 1
    2828     6012     6014 1
    2829     5708     5715 1
    2830     2566     2569 1
    2831     3725     3726 1
    2832     7276     7279 1
    2833     5393     5394 1
    2834     7882     7885 1
    2835       43       42 1
    2836     5558     5561 1
    2837     7675     7676 1
    2838      891      892 1
    2839     9854     9855 1
    2840     3891     3892 1
    2841      915      916 1
    2842     1650     1651 1
    2843     4900     4901 1
    2844       42       39 1
    2845     4001     4007 1
    2846     9757     9759 1
    2847     6549     6551 1
    2848     2196     2198 1
    2849     3854     3858 1
    2850     6855     6857 1
    2851      187      189 1
    2852     5012     5015 1
    2853     9419     9420 1
    2854     8257     8258 1
    2855      181      184 1
    2856     2622     2625 1
    2857     4233     4235 1
    2858      423      426 1
    2859     4202     4204 1
    2860      613      615 1
    2861     5073     5076 1
    2862     6336     6339 1
    2863     4438     4441 1
    2864     8599     8601 1
    2865     6227     6229 1
    2866     9398     9400 1
    2867     5151     5154 1
    2868     5348     5350 1
    2869     7363     7365 1
    2870     5861     5862 1
    2871     8371     8373 1
    2872     1060     1062 1
    2873     8149     8151 1
    2874     9676     9678 1
    2875     3870     3872 1
    2876     5384     5386 1
    2877     7117     7119 1
    2878     8653     8655 1
    2879     6465     6468 1
    2880     6085     6088 1
    2881     9880     9881 1
    2882     9098     9099 1
    2883     8611     8554 1
    2884     8623     8624 1
    2885     8976     8978 1
    2886     5233     5230 1
    2887     2016     2023 1
    2888     2646     2587 1
    2889     5801     5804 1
    2890     2726     2727 1
    2891      254      251 1
    2892     2828     2829 1
    2893     3647     3648 1
    2894     3291     3293 1
    2895       91       93 1
    2896     2857     2862 1
    2897     9860     9862 1
    2898     4971     4980 1
    2899      625      622 1
    2900     3702     3705 1
    2901     2860     2863 1
    2902     1961     1962 1
    2903     9192     9193 1
    2904     9901     9902 1
    2905     9583     9586 1
    2906      738      745 1
    2907     3130     3131 1
    2908     4060     4061 1
    2909     2668     2669 1
    2910     2637     2638 1
    2911     2297     2298 1
    2912     4112     4115 1
    2913     5858     5861 1
    2914     9533     9536 1
    2915     5668     5671 1
    2916     3276     3278 1
    2917     4635     4637 1
    2918     4604     4606 1
    2919      924      921 1
    2920     3039     3041 1
    2921     4758     4755 1
    2922     6139     6142 1
    2923     8359     8302 1
    2924     8395     8397 1
    2925     7387     7389 1
    2926     4293     4294 1
    2927     5961     5962 1
    2928     4780     4781 1
    2929     4601     4604 1
    2930     1514     1516 1
    2931     7684     7686 1
    2932     4783     4786 1
    2933     5468     5471 1
    2934     2523     2525 1
    2935     2492     2494 1
    2936     8347     8349 1
    2937     6589     6592 1
    2938     8224     8227 1
    2939     7225     7168 1
    2940      619      621 1
    2941     5064     5066 1
    2942     1048     1049 1
    2943     3425     3427 1
    2944     6833     6835 1
    2945     2002     2004 1
    2946     9695     9696 1
    2947     2810     2811 1
    2948     5937     5938 1
    2949     4955     4957 1
    2950     5906     5907 1
    2951     5981     5983 1
    2952      701      703 1
    2953      498      500 1
    2954      529      531 1
    2955     8431     8433 1
    2956      991      993 1
    2957     5178     5180 1
    2958     7927     7929 1
    2959      918      920 1
    2960     4903     4905 1
    2961     9660     9662 1
    2962     3610     3613 1
    2963       66       68 1
    2964     2181     2182 1
    2965     3604     3605 1
    2966     1532     1535 1
    2967     6230     6231 1
    2968     4357     4358 1
    2969     4961     4962 1
    2970     5755     5756 1
    2971     6713     6714 1
    2972     7558     7559 1
    2973     4853     4854 1
    2974     2498     2499 1
    2975     5424     5431 1
    2976     1027     1030 1
    2977      486      487 1
    2978     6514     6515 1
    2979     1724     1725 1
    2980     5329     5330 1
    2981     4270     4271 1
    2982     2042     2045 1
    2983      640      641 1
    2984     5140     5141 1
    2985     4569     4570 1
    2986     7105     7106 1
    2987     7258     7259 1
    2988     3583     3585 1
    2989     5287     5289 1
    2990     7678     7681 1
    2991     8182     8185 1
    2992     1014     1016 1
    2993     1133     1136 1
    2994     3215     3218 1
    2995     9122     9125 1
    2996     1819     1821 1
    2997     7210     7212 1
    2998     7714     7716 1
    2999     4143     4145 1
    3000     6694     6698 1
    3001     8980     8982 1
    3002     2305     2306 1
    3003      964      967 1
    3004     7528     7529 1
    3005     5447     5450 1
    3006     5477     5480 1
    3007     3585     3578 1
    3008     7939     7941 1
    3009     7061     7064 1
    3010     8550     8553 1
    3011     3103     3106 1
    3012     7345     7347 1
    3013     5966     5968 1
    3014     9580     9582 1
    3015     7849     7851 1
    3016     8361     8363 1
    3017     7857     7859 1
    3018     9366     9368 1
    3019     7513     7514 1
    3020     8521     8522 1
    3021     6867     6870 1
    3022     8470     8473 1
    3023     2671     2674 1
    3024     5248     5251 1
    3025     7369     7371 1
    3026     7873     7875 1
    3027     9616     9619 1
    3028      556      557 1
    3029      538      535 1
    3030     1553     1554 1
    3031     4076     4077 1
    3032      582      583 1
    3033     1828     1829 1
    3034     9513     9515 1
    3035     9304     9306 1
    3036     8035     8036 1
    3037     1109     1112 1
    3038     9698     9701 1
    3039     2770     2772 1
    3040     5853     5854 1
    3041     6042     6043 1
    3042     9448     9449 1
    3043     1847     1848 1
    3044     1856     1857 1
    3045     2804     2801 1
    3046     2375     2377 1
    3047     9642     9644 1
    3048     2344     2346 1
    3049     3773     3775 1
    3050     9851     9853 1
    3051     6662     6664 1
    3052     3798     3800 1
    3053     6474     6477 1
    3054     3804     3806 1
    3055     2381     2383 1
    3056     5264     5265 1
    3057      236      237 1
    3058      326      327 1
    3059      205      206 1
    3060     9426     9428 1
    3061     2921     2922 1
    3062     8995     8998 1
    3063     2042     2043 1
    3064      483      486 1
    3065     3465     3466 1
    3066     5607     5608 1
    3067     5638     5639 1
    3068     6242     6243 1
    3069     8930     8931 1
    3070     8197     8200 1
    3071       72       75 1
    3072     7648     7649 1
    3073     1761     1763 1
    3074     3155     3156 1
    3075     6006     6009 1
    3076     7930     7933 1
    3077     2631     2633 1
    3078     2662     2664 1
    3079     1837     1839 1
    3080     6858     6860 1
    3081     2442     2444 1
    3082     9833     9830 1
    3083      103      105 1
    3084      148      150 1
    3085     9669     9671 1
    3086     3560     3562 1
    3087     3384     3387 1
    3088     5450     5452 1
    3089     2841     2842 1
    3090      501      503 1
    3091     9807     9809 1
    3092     5544     5545 1
    3093     3795     3796 1
    3094     9826     9827 1
    3095     3764     3765 1
    3096     2372     2373 1
    3097     3428     3429 1
    3098     6830     6832 1
    3099      162      164 1
    3100     5641     5642 1
    3101     5879     5881 1
    3102     7070     7071 1
    3103     7039     7040 1
    3104     1604     1605 1
    3105     9126     9127 1
    3106     2477     2479 1
    3107     4848     4851 1
    3108     1504     1506 1
    3109     5027     5030 1
    3110     4070     4073 1
    3111     5644     5646 1
    3112     5613     5615 1
    3113     5424     5426 1
    3114     1564     1563 1
    3115     1825     1828 1
    3116     7492     7495 1
    3117     8500     8503 1
    3118     1045     1047 1
    3119     8826     8828 1
    3120      822      823 1
    3121     7315     7317 1
    3122     4526     4528 1
    3123     1556     1558 1
    3124     2719     2723 1
    3125     9610     9612 1
    3126      970      972 1
    3127     8845     8846 1
    3128     2992     2994 1
    3129     8215     8216 1
    3130     5493     5494 1
    3131     2251     2252 1
    3132     9880     9883 1
    3133     5771     5772 1
    3134     1459     1460 1
    3135     2708     2709 1
    3136     6375     6376 1
    3137     8632     8633 1
    3138     1384     1386 1
    3139     1341     1342 1
    3140     8527     8528 1
    3141      214      217 1
    3142     5912     5853 1
    3143     2274     2277 1
    3144     2021     2024 1
    3145      872      875 1
    3146     3786     3787 1
    3147     2332     2333 1
    3148     3283     3284 1
    3149     4706     4707 1
    3150     6888     6889 1
    3151      924      925 1
    3152     8665     8662 1
    3153     9130     9132 1
    3154     9042     9039 1
    3155     2016     2019 1
    3156     8131     8134 1
    3157     8635     8638 1
    3158     4085     4088 1
    3159      275      278 1
    3160     4054     4057 1
    3161     8916     8917 1
    3162      553      554 1
    3163     2514     2511 1
    3164     7153     7150 1
    3165     3906     3903 1
    3166      414      416 1
    3167     5221     5224 1
    3168     7234     7237 1
    3169     7738     7741 1
    3170     7312     7315 1
    3171     3100     3103 1
    3172     4523     4526 1
    3173     8251     8252 1
    3174     4132     4135 1
    3175     3450     3451 1
    3176     9230     9231 1
    3177     2027     2028 1
    3178     8883     8884 1
    3179     2517     2520 1
    3180      816      819 1
    3181     2230     2233 1
    3182     9748     9749 1
    3183     1220     1217 1
    3184     7612     7613 1
    3185     6762     6765 1
    3186     1280     1283 1
    3187     8789     8792 1
    3188     4520     4522 1
    3189     1239     1241 1
    3190     1489     1492 1
    3191     5166     5169 1
    3192     8757     8759 1
    3193     3066     3068 1
    3194     7813     7815 1
    3195     6320     6323 1
    3196     5934     5937 1
    3197     5421     5423 1
    3198     6647     6644 1
    3199     9892     9895 1
    3200     2147     2149 1
    3201      967      969 1
    3202     8269     8272 1
    3203     5783     5785 1
    3204     7441     7443 1
    3205     3570     3572 1
    3206     3369     3371 1
    3207     6036     6038 1
    3208     6067     6069 1
    3209     1246     1245 1
    3210     6116     6107 1
    3211     6900     6903 1
    3212     7360     7357 1
    3213     5674     5675 1
    3214     3717     3718 1
    3215      196      197 1
    3216     2118     2119 1
    3217      139      142 1
    3218     2150     2153 1
    3219     3541     3542 1
    3220     1937     1940 1
    3221     8704     8707 1
    3222     9648     9650 1
    3223     6668     6670 1
    3224      520      522 1
    3225     1344     1346 1
    3226     3280     3281 1
    3227     3752     3753 1
    3228     2329     2330 1
    3229     5058     5059 1
    3230     1084     1025 1
    3231     6885     6886 1
    3232     8728     8729 1
    3233     4067     4070 1
    3234     1362     1365 1
    3235     6293     6294 1
    3236     4435     4436 1
    3237     3489     3490 1
    3238     9269     9270 1
    3239     3520     3521 1
    3240     2097     2098 1
    3241     3314     3311 1
    3242     1982     1983 1
    3243     9160     9161 1
    3244     7003     7004 1
    3245      446      449 1
    3246     9654     9656 1
    3247     7576     7579 1
    3248     6293     6296 1
    3249     9269     9272 1
    3250     3946     3948 1
    3251     3915     3917 1
    3252     1184     1186 1
    3253     7774     7777 1
    3254     1710     1713 1
    3255     1236     1239 1
    3256     1226     1167 1
    3257     4344     4347 1
    3258     4215     4218 1
    3259     2955     2958 1
    3260     5783     5786 1
    3261     4378     4381 1
    3262     5807     5810 1
    3263      239      242 1
    3264     2570     2573 1
    3265     5296     5299 1
    3266     8578     8581 1
    3267     6206     6209 1
    3268     5076     5078 1
    3269     6175     6178 1
    3270      883      877 1
    3271     1440     1444 1
    3272     7405     7406 1
    3273     1961     1963 1
    3274     2165     2158 1
    3275     9192     9194 1
    3276     2297     2303 1
    3277      281      284 1
    3278     1526     1527 1
    3279      562      563 1
    3280     4139     4143 1
    3281     8392     8394 1
    3282     7384     7386 1
    3283     1042     1045 1
    3284     8407     8410 1
    3285     8440     8442 1
    3286     7237     7238 1
    3287     3329     3331 1
    3288     5218     5220 1
    3289     7741     7742 1
    3290     3410     3413 1
    3291     4299     4302 1
    3292     1882     1883 1
    3293     3706     3707 1
    3294     8566     8567 1
    3295     2486     2487 1
    3296     8680     8681 1
    3297     5961     5963 1
    3298     8172     8173 1
    3299     3048     3049 1
    3300     4502     4503 1
    3301     3079     3080 1
    3302     2254     2255 1
    3303      607      608 1
    3304     4471     4472 1
    3305     8424     8425 1
    3306     3283     3288 1
    3307     4804     4805 1
    3308     7920     7921 1
    3309     5705     5706 1
    3310     4622     4624 1
    3311     3230     3232 1
    3312     4653     4655 1
    3313      730      734 1
    3314     5722     5724 1
    3315     1598     1599 1
    3316     7033     7034 1
    3317     5910     5913 1
    3318     8866     8863 1
    3319     9776     9777 1
    3320      825      827 1
    3321     9601     9603 1
    3322     6184     6187 1
    3323     6991     6994 1
    3324     1175     1172 1
    3325     7264     7267 1
    3326     8766     8769 1
    3327     4586     4588 1
    3328     3163     3165 1
    3329     3163     3166 1
    3330     2810     2812 1
    3331     5937     5939 1
    3332     8137     8139 1
    3333     8641     8643 1
    3334     5906     5908 1
    3335     1387     1390 1
    3336     7731     7734 1
    3337     8235     8238 1
    3338      764      766 1
    3339     5952     5954 1
    3340     1000     1001 1
    3341     8922     8923 1
    3342     3822     3823 1
    3343     9301     9302 1
    3344     1298     1299 1
    3345     8936     8939 1
    3346      514      517 1
    3347     3698     3700 1
    3348     6410     6412 1
    3349     2692     2694 1
    3350     8437     8439 1
    3351     4580     4582 1
    3352     4853     4855 1
    3353     2498     2500 1
    3354     5928     5931 1
    3355     4004     4007 1
    3356     2788     2729 1
    3357     7891     7892 1
    3358     9107     9109 1
    3359      504      506 1
    3360     9295     9297 1
    3361      720      721 1
    3362      735      737 1
    3363     8143     8145 1
    3364     4830     4832 1
    3365     4838     4840 1
    3366     1943     1946 1
    3367     8710     8713 1
    3368     7111     7113 1
    3369     3674     3676 1
    3370     1912     1915 1
    3371     9004     9007 1
    3372     1616     1618 1
    3373     1465     1467 1
    3374      130      132 1
    3375     5397     5406 1
    3376     4638     4640 1
    3377     4607     4609 1
    3378     4650     4651 1
    3379      233      230 1
    3380     2650     2651 1
    3381     7348     7290 1
    3382     7768     7769 1
    3383     7510     7511 1
    3384     1417     1418 1
    3385     4423     4427 1
    3386     9910     9912 1
    3387      701      704 1
    3388     4789     4786 1
    3389     9092     9095 1
    3390       72       74 1
    3391     4656     4658 1
    3392     2677     2679 1
    3393      471      474 1
    3394     3486     3489 1
    3395     1220     1221 1
    3396     9826     9830 1
    3397     6620     6622 1
    3398     6710     6711 1
    3399     6789     6791 1
    3400     6758     6760 1
    3401     1964     1965 1
    3402     1689     1690 1
    3403     5264     5255 1
    3404     2865     2866 1
    3405     2628     2631 1
    3406     6181     6184 1
    3407     5992     5995 1
    3408      156      143 1
    3409     5323     5320 1
    3410     6163     6165 1
    3411     4517     4520 1
    3412     9386     9389 1
    3413     7951     7948 1
    3414     3076     3079 1
    3415     1320     1321 1
    3416     7070     7073 1
    3417     3236     3237 1
    3418     5607     5609 1
    3419     5638     5640 1
    3420     6242     6244 1
    3421     8930     8932 1
    3422     6826     6827 1
    3423     3134     3125 1
    3424     5532     5533 1
    3425     6876     6877 1
    3426     1027     1029 1
    3427     3575     3576 1
    3428     4499     4500 1
    3429     8248     8245 1
    3430     3045     3046 1
    3431     4396     4397 1
    3432     4990     4992 1
    3433     1434     1437 1
    3434     5949     5952 1
    3435     9404     9406 1
    3436     1408     1411 1
    3437     8242     8244 1
    3438     4967     4970 1
    3439     4550     4553 1
    3440     6363     6366 1
    3441     5453     5456 1
    3442     7024     7025 1
    3443      949      952 1
    3444     9754     9755 1
    3445     1317     1318 1
    3446     5544     5546 1
    3447     4541     4544 1
    3448     1950     1949 1
    3449     8717     8716 1
    3450     7369     7372 1
    3451     1921     1922 1
    3452     6563     6564 1
    3453     6508     6509 1
    3454     9548     9549 1
    3455      593      594 1
    3456     1804     1805 1
    3457     6822     6823 1
    3458     5172     5174 1
    3459     7696     7698 1
    3460     5279     5281 1
    3461     9042     9043 1
    3462     6392     6394 1
    3463     4115     4116 1
    3464      943      945 1
    3465     3828     3830 1
    3466     2595     2597 1
    3467     4305     4306 1
    3468      517      518 1
    3469     2677     2680 1
    3470     8434     8437 1
    3471     4635     4638 1
    3472     4604     4607 1
    3473     8416     8417 1
    3474     3039     3042 1
    3475      175      178 1
    3476     9719     9722 1
    3477     1350     1351 1
    3478     9751     9753 1
    3479     8314     8315 1
    3480     2269     2270 1
    3481     1852     1853 1
    3482     4505     4507 1
    3483     4474     4476 1
    3484     3082     3084 1
    3485     2776     2778 1
    3486     6771     6774 1
    3487     3051     3053 1
    3488      933      930 1
    3489     4296     4299 1
    3490      260      257 1
    3491     4199     4201 1
    3492     1072     1073 1
    3493     8976     8980 1
    3494     7996     7999 1
    3495     5293     5296 1
    3496     8575     8578 1
    3497      677      679 1
    3498     6533     6538 1
    3499     3906     3908 1
    3500     5955     5957 1
    3501     2514     2516 1
    3502     2483     2485 1
    3503     7153     7155 1
    3504     5132     5134 1
    3505     9866     9869 1
    3506     4181     4184 1
    3507     9351     9354 1
    3508      746      743 1
    3509      471      472 1
    3510      507      504 1
    3511     1701     1704 1
    3512     9213     9214 1
    3513     4849     4853 1
    3514     9660     9663 1
    3515     9128     9129 1
    3516     1982     1985 1
    3517     5523     5524 1
    3518     9160     9163 1
    3519     9657     9658 1
    3520     9810     9811 1
    3521     9383     9384 1
    3522     4251     4252 1
    3523      656      658 1
    3524     9807     9804 1
    3525     6190     6193 1
    3526      735      741 1
    3527      514      516 1
    3528     4700     4701 1
    3529     1426     1427 1
    3530     1138     1139 1
    3531     9445     9446 1
    3532     9672     9673 1
    3533     2689     2692 1
    3534     8209     8212 1
    3535     4918     4859 1
    3536     8140     8142 1
    3537     7861     7863 1
    3538      776      778 1
    3539      683      685 1
    3540     3425     3430 1
    3541     3783     3784 1
    3542     5323     5326 1
    3543     9104     9106 1
    3544     6552     6553 1
    3545     1990     1991 1
    3546     5632     5633 1
    3547     2132     2133 1
    3548     7573     7574 1
    3549     8077     8078 1
    3550     4257     4260 1
    3551     7450     7453 1
    3552       63       65 1
    3553     4477     4480 1
    3554     5743     5746 1
    3555     8446     8449 1
    3556      312      314 1
    3557     6444     6446 1
    3558     2224     2227 1
    3559     3616     3619 1
    3560     7999     8002 1
    3561     1462     1459 1
    3562     5910     5912 1
    3563     6949     6952 1
    3564     6972     6975 1
    3565     5471     5474 1
    3566     2650     2653 1
    3567     1740     1743 1
    3568     6662     6665 1
    3569     5532     5535 1
    3570     4897     4900 1
    3571     9642     9645 1
    3572      344      347 1
    3573     1683     1680 1
    3574     5737     5740 1
    3575      269      272 1
    3576     4958     4961 1
    3577     6601     6604 1
    3578     2541     2543 1
    3579     7849     7852 1
    3580     7345     7348 1
    3581     9366     9369 1
    3582     8763     8765 1
    3583     8563     8566 1
    3584     1813     1816 1
    3585     6888     6891 1
    3586     9260     9263 1
    3587     6055     6057 1
    3588     1785     1786 1
    3589     6647     6648 1
    3590     9054     9055 1
    3591     6616     6617 1
    3592     6097     6098 1
    3593     1856     1859 1
    3594      738      740 1
    3595     9519     9521 1
    3596     5453     5455 1
    3597     9451     9453 1
    3598     9242     9244 1
    3599     1776     1778 1
    3600     8014     8017 1
    3601     2949     2951 1
    3602     4140     4135 1
    3603     6088     6090 1
    3604     7438     7440 1
    3605     5224     5226 1
    3606     6928     6930 1
    3607     1153     1150 1
    3608     8248     8249 1
    3609     9201     9202 1
    3610       88       89 1
    3611      436      427 1
    3612     9704     9707 1
    3613       84       81 1
    3614     2242     2243 1
    3615     3634     3635 1
    3616     3665     3666 1
    3617     9216     9217 1
    3618     5021     5022 1
    3619      692      693 1
    3620     4564     4567 1
    3621     8491     8492 1
    3622     3239     3242 1
    3623     6432     6435 1
    3624     4009     4010 1
    3625     5867     5868 1
    3626     2662     2665 1
    3627     6858     6861 1
    3628     1837     1840 1
    3629     2631     2634 1
    3630     2442     2445 1
    3631     4819     4816 1
    3632     2868     2869 1
    3633     4291     4292 1
    3634     7804     7805 1
    3635     7300     7301 1
    3636     4511     4512 1
    3637     3057     3058 1
    3638      804      807 1
    3639     8155     8157 1
    3640     7651     7653 1
    3641     9410     9413 1
    3642     7237     7239 1
    3643     7741     7743 1
    3644     1094     1096 1
    3645     7768     7770 1
    3646     2715     2720 1
    3647     1813     1815 1
    3648     1164     1166 1
    3649     5601     5604 1
    3650     9051     9053 1
    3651     3048     3050 1
    3652     4502     4504 1
    3653     3079     3081 1
    3654     2254     2256 1
    3655      607      609 1
    3656     8172     8174 1
    3657     4471     4473 1
    3658      837      838 1
    3659     3570     3574 1
    3660     6126     6130 1
    3661     9286     9288 1
    3662     8046     8048 1
    3663       10       11 1
    3664     7309     7311 1
    3665     8317     8319 1
    3666     3097     3099 1
    3667     2988     2990 1
    3668     2752     2755 1
    3669     3422     3425 1
    3670     8557     8560 1
    3671     8053     8056 1
    3672     9554     9557 1
    3673     8215     8212 1
    3674     4437     4430 1
    3675       39       41 1
    3676     2163     2164 1
    3677     9036     9037 1
    3678     1767     1768 1
    3679     1930     1933 1
    3680     8807     8808 1
    3681     9380     9381 1
    3682     4453     4454 1
    3683     6224     6225 1
    3684     5003     5005 1
    3685     6268     6269 1
    3686     5042     5043 1
    3687     1792     1793 1
    3688     2181     2184 1
    3689     3604     3607 1
    3690     3535     3537 1
    3691     7525     7527 1
    3692      489      491 1
    3693     8780     8776 1
    3694     4545     4546 1
    3695       78       80 1
    3696     4894     4896 1
    3697     1710     1712 1
    3698     4100     4102 1
    3699     3740     3742 1
    3700     4925     4927 1
    3701     5958     5961 1
    3702     4344     4346 1
    3703     4076     4079 1
    3704     8002     8004 1
    3705     4399     4400 1
    3706     2976     2977 1
    3707     3982     3983 1
    3708     1260     1261 1
    3709     5360     5362 1
    3710     6154     6156 1
    3711     3354     3355 1
    3712     5366     5367 1
    3713     1326     1327 1
    3714     4112     4114 1
    3715     7705     7707 1
    3716     7201     7203 1
    3717     1779     1781 1
    3718       84       86 1
    3719     1590     1592 1
    3720     3931     3932 1
    3721     6039     6042 1
    3722     2930     2871 1
    3723     4184     4187 1
    3724     1269     1270 1
    3725     4532     4535 1
    3726     5100     5101 1
    3727     8733     8734 1
    3728      428      429 1
    3729     7510     7512 1
    3730     1417     1419 1
    3731     7542     7544 1
    3732     3199     3200 1
    3733     9248     9249 1
    3734     4018     4019 1
    3735     3010     3011 1
    3736       75       76 1
    3737     4433     4434 1
    3738     3066     3069 1
    3739      124      125 1
    3740     2973     2974 1
    3741     9266     9267 1
    3742     3251     3253 1
    3743      381      383 1
    3744     7132     7135 1
    3745     4039     4041 1
    3746     4949     4951 1
    3747     3157     3159 1
    3748     4674     4676 1
    3749     8695     8698 1
    3750     4789     4790 1
    3751     4154     4155 1
    3752     3060     3061 1
    3753     8311     8312 1
    3754      362      363 1
    3755     8458     8459 1
    3756     4601     4602 1
    3757      976      977 1
    3758     1220     1222 1
    3759     5200     5201 1
    3760     8296     8239 1
    3761     3013     3014 1
    3762     3233     3234 1
    3763     3202     3203 1
    3764      106      108 1
    3765     8482     8483 1
    3766     4625     4626 1
    3767     1495     1497 1
    3768     1714     1717 1
    3769     7630     7632 1
    3770     9692     9695 1
    3771     9648     9651 1
    3772     6668     6671 1
    3773     1705     1706 1
    3774     9001     9002 1
    3775     6826     6828 1
    3776     2384     2387 1
    3777     9645     9648 1
    3778     3851     3856 1
    3779     5511     5514 1
    3780     6665     6668 1
    3781     9204     9205 1
    3782     5786     5789 1
    3783     9436     9439 1
    3784     6249     6258 1
    3785     5508     5509 1
    3786     4412     4413 1
    3787     9636     9637 1
    3788     4958     4959 1
    3789     8854     8855 1
    3790     6656     6657 1
    3791     5477     5478 1
    3792      417      420 1
    3793     2048     2051 1
    3794     9889     9890 1
    3795     7615     7616 1
    3796     9604     9607 1
    3797      801      798 1
    3798     2263     2265 1
    3799     3835     3844 1
    3800     1448     1450 1
    3801     9748     9750 1
    3802     2187     2189 1
    3803     3641     3643 1
    3804     4245     4247 1
    3805     7049     7051 1
    3806     7018     7020 1
    3807      144      145 1
    3808     7097     7100 1
    3809     4024     4027 1
    3810     6680     6683 1
    3811     4266     4268 1
    3812     4683     4685 1
    3813     3260     3262 1
    3814      269      271 1
    3815     6418     6425 1
    3816     3694     3697 1
    3817       10       12 1
    3818     9483     9484 1
    3819     8410     8411 1
    3820     5203     5200 1
    3821     9676     9677 1
    3822      462      463 1
    3823     7906     7907 1
    3824     7762     7765 1
    3825     6991     6992 1
    3826     8473     8474 1
    3827     4628     4629 1
    3828     2033     2034 1
    3829     3888     3889 1
    3830     7135     7136 1
    3831     2465     2466 1
    3832     7052     7053 1
    3833     5764     5765 1
    3834     6363     6364 1
    3835      628      629 1
    3836     1045     1048 1
    3837     7402     7405 1
    3838     1375     1377 1
    3839     5372     5374 1
    3840     3668     3670 1
    3841     2214     2216 1
    3842     1430     1432 1
    3843     5563     5564 1
    3844      115      116 1
    3845     6366     6367 1
    3846     3526     3529 1
    3847     6384     6387 1
    3848     1026     1025 1
    3849     1725     1729 1
    3850     3187     3189 1
    3851      900      902 1
    3852     4577     4580 1
    3853     4610     4612 1
    3854     4408     4410 1
    3855     4190     4192 1
    3856     2767     2769 1
    3857     5416     5418 1
    3858     5015     5017 1
    3859     5853     5850 1
    3860     5410     5413 1
    3861     9383     9385 1
    3862     9322     9323 1
    3863     6447     6450 1
    3864     5974     5965 1
    3865      903      906 1
    3866     1761     1764 1
    3867     8293     8235 1
    3868     2610     2611 1
    3869     5832     5833 1
    3870     2868     2870 1
    3871     7300     7302 1
    3872     4511     4513 1
    3873     9457     9458 1
    3874     3399     3400 1
    3875     7978     7920 1
    3876     7663     7665 1
    3877     6123     6124 1
    3878     9080     9081 1
    3879     3057     3059 1
    3880     4830     4833 1
    3881     9416     9419 1
    3882      927      929 1
    3883     9726     9728 1
    3884     7516     7517 1
    3885     8524     8525 1
    3886     3789     3791 1
    3887     2366     2368 1
    3888     4308     4310 1
    3889     2335     2337 1
    3890      574      575 1
    3891     6523     6524 1
    3892     8062     8063 1
    3893     5888     5889 1
    3894     5919     5920 1
    3895     9563     9564 1
    3896     1990     1992 1
    3897     6552     6554 1
    3898     5632     5634 1
    3899     2773     2774 1
    3900     4007     4008 1
    3901     4196     4197 1
    3902     1248     1249 1
    3903     7597     7598 1
    3904     1801     1803 1
    3905     2955     2957 1
    3906     4378     4380 1
    3907     4523     4520 1
    3908     6632     6634 1
    3909     5677     5674 1
    3910     2405     2407 1
    3911     3743     3745 1
    3912     2100     2097 1
    3913     2924     2926 1
    3914     4737     4738 1
    3915     1266     1267 1
    3916     1610     1611 1
    3917     4804     4806 1
    3918     8424     8426 1
    3919     7920     7922 1
    3920     5705     5707 1
    3921      955      952 1
    3922     1628     1631 1
    3923     5940     5943 1
    3924     7774     7776 1
    3925     4403     4408 1
    3926     9016     9019 1
    3927     7624     7626 1
    3928     6250     6251 1
    3929     1544     1546 1
    3930     7579     7580 1
    3931     1544     1547 1
    3932     8128     8130 1
    3933     1303     1305 1
    3934     8604     8602 1
    3935     5353     5351 1
    3936     1671     1674 1
    3937     5592     5595 1
    3938     9089     9091 1
    3939      831      833 1
    3940     8822     8825 1
    3941     5586     5587 1
    3942     3882     3883 1
    3943     4761     4762 1
    3944     6496     6497 1
    3945     4677     4678 1
    3946     3254     3255 1
    3947     2175     2178 1
    3948      761      762 1
    3949     8455     8456 1
    3950     1214     1217 1
    3951     8807     8809 1
    3952     9380     9382 1
    3953      432      433 1
    3954     4879     4880 1
    3955     8860     8863 1
    3956     6284     6286 1
    3957      507      508 1
    3958     9216     9218 1
    3959     5021     5023 1
    3960      692      694 1
    3961      405      408 1
    3962     6946     6947 1
    3963     2115     2116 1
    3964     7555     7558 1
    3965     2160     2158 1
    3966     8365     8366 1
    3967     1029     1022 1
    3968     6989     6990 1
    3969     6384     6385 1
    3970     2144     2145 1
    3971     5271     5272 1
    3972     4351     4352 1
    3973     5749     5750 1
    3974     3770     3771 1
    3975     5285     5286 1
    3976     3567     3568 1
    3977     6574     6575 1
    3978     1698     1701 1
    3979     4764     4767 1
    3980     1927     1930 1
    3981     4795     4798 1
    3982     7777     7780 1
    3983     7966     7967 1
    3984     5438     5439 1
    3985     2495     2497 1
    3986     3949     3951 1
    3987     6108     6109 1
    3988     4888     4889 1
    3989     3390     3391 1
    3990     7360     7363 1
    3991     9045     9048 1
    3992     5381     5378 1
    3993     8368     8371 1
    3994      278      280 1
    3995      712      715 1
    3996     6979     6983 1
    3997     8377     8380 1
    3998     2943     2944 1
    3999     9401     9402 1
    4000     8239     8240 1
    4001     6265     6266 1
    4002     3734     3736 1
    4003     2311     2313 1
    4004     4302     4305 1
    4005     7504     7505 1
    4006      417      414 1
    4007     7357     7359 1
    4008     9530     9533 1
    4009     5665     5668 1
    4010     6879     6881 1
    4011       63       60 1
    4012     6604     6606 1
    4013     9883     9884 1
    4014     3706     3693 1
    4015     1405     1407 1
    4016      791      793 1
    4017     5601     5602 1
    4018     9145     9147 1
    4019     7819     7822 1
    4020     2214     2217 1
    4021     1430     1433 1
    4022     2375     2378 1
    4023     9078     9079 1
    4024     2344     2347 1
    4025     3798     3801 1
    4026     7672     7675 1
    4027     9607     9608 1
    4028     7282     7283 1
    4029     7711     7714 1
    4030     3073     3074 1
    4031     7207     7210 1
    4032     4465     4466 1
    4033     5033     5035 1
    4034     4842     4844 1
    4035     6474     6476 1
    4036     1000     1003 1
    4037     8922     8925 1
    4038     7153     7156 1
    4039     2514     2517 1
    4040     3906     3909 1
    4041      301      298 1
    4042     5184     5187 1
    4043     4453     4455 1
    4044     6024     6026 1
    4045     4774     4775 1
    4046      578      579 1
    4047     4004     4005 1
    4048     5897     5898 1
    4049     5928     5929 1
    4050     6722     6723 1
    4051     2767     2770 1
    4052     6691     6692 1
    4053     5465     5466 1
    4054     3638     3639 1
    4055     6688     6690 1
    4056     8446     8448 1
    4057     7813     7816 1
    4058     8487     8490 1
    4059     6897     6899 1
    4060     5193     5195 1
    4061     4984     4986 1
    4062      758      759 1
    4063     9392     9395 1
    4064     2109     2110 1
    4065     3532     3533 1
    4066     3725     3727 1
    4067     8125     8128 1
    4068     7702     7703 1
    4069     8631     8629 1
    4070      341      342 1
    4071     2607     2608 1
    4072     9469     9470 1
    4073      118      119 1
    4074     3242     3243 1
    4075     7353     7356 1
    4076     6964     6967 1
    4077     9476     9480 1
    4078     1921     1923 1
    4079     9548     9550 1
    4080     6508     6510 1
    4081     1559     1561 1
    4082      683      686 1
    4083     2581     2587 1
    4084     1952     1955 1
    4085     2973     2976 1
    4086     5221     5222 1
    4087     5317     5320 1
    4088     8380     8382 1
    4089     9716     9718 1
    4090     9507     9509 1
    4091     7372     7374 1
    4092     4798     4800 1
    4093     4767     4769 1
    4094     8783     8786 1
    4095     8880     8882 1
    4096     5193     5196 1
    4097     1063     1065 1
    4098     8951     8953 1
    4099     6813     6815 1
    4100     4558     4561 1
    4101     2408     2411 1
    4102     1773     1776 1
    4103     6635     6638 1
    4104     7699     7702 1
    4105     7453     7454 1
    4106     5239     5240 1
    4107     2112     2113 1
    4108     2894     2895 1
    4109     8200     8203 1
    4110     8898     8899 1
    4111     9248     9251 1
    4112     9769     9771 1
    4113     2274     2276 1
    4114     3190     3193 1
    4115     1486     1489 1
    4116      199      202 1
    4117      872      874 1
    4118     5916     5918 1
    4119     5885     5887 1
    4120     3631     3633 1
    4121      982      983 1
    4122     6160     6163 1
    4123     3937     3940 1
    4124     6919     6922 1
    4125     4291     4288 1
    4126     7804     7801 1
    4127     7219     7221 1
    4128     6659     6661 1
    4129     3801     3803 1
    4130     9639     9641 1
    4131     2378     2380 1
    4132      164      159 1
    4133      544      547 1
    4134     2949     2952 1
    4135     9242     9245 1
    4136     9451     9454 1
    4137     4372     4375 1
    4138     3538     3540 1
    4139     1146     1148 1
    4140     6861     6863 1
    4141     9772     9775 1
    4142     1840     1842 1
    4143     8134     8137 1
    4144     8638     8641 1
    4145     9272     9275 1
    4146     1124     1127 1
    4147     1041     1039 1
    4148     9683     9685 1
    4149     8922     8919 1
    4150     2236     2237 1
    4151     5363     5364 1
    4152     6157     6158 1
    4153     9692     9693 1
    4154     8789     8790 1
    4155     1523     1526 1
    4156       81       82 1
    4157     4012     4013 1
    4158     9463     9464 1
    4159     8191     8193 1
    4160     6076     6077 1
    4161     4404     4406 1
    4162     5842     5843 1
    4163       97       99 1
    4164     5798     5800 1
    4165      408      409 1
    4166     6623     6625 1
    4167     3450     3452 1
    4168     2027     2029 1
    4169     9230     9232 1
    4170     1934     1936 1
    4171     8883     8885 1
    4172     6517     6520 1
    4173     5882     5885 1
    4174     5913     5916 1
    4175     6716     6718 1
    4176     1695     1697 1
    4177     8683     8685 1
    4178     8801     8803 1
    4179     8617     8620 1
    4180     8113     8116 1
    4181     7773     7771 1
    4182      323      320 1
    4183      248      249 1
    4184     4387     4388 1
    4185     9257     9258 1
    4186     7612     7614 1
    4187     2964     2965 1
    4188     9830     9831 1
    4189     9548     9551 1
    4190     3172     3175 1
    4191     7723     7726 1
    4192     9342     9343 1
    4193     9338     9336 1
    4194     3109     3110 1
    4195     7321     7322 1
    4196      964      965 1
    4197     2218     2219 1
    4198     6694     6695 1
    4199     4314     4315 1
    4200     4722     4723 1
    4201     2076     2077 1
    4202     3996     3997 1
    4203     5145     5146 1
    4204     4825     4827 1
    4205     8068     8070 1
    4206     6112     6114 1
    4207     4486     4488 1
    4208     4517     4519 1
    4209     3094     3096 1
    4210     3369     3372 1
    4211      967      970 1
    4212     7441     7444 1
    4213      187      184 1
    4214     2992     2995 1
    4215     4502     4505 1
    4216     3048     3051 1
    4217     4471     4474 1
    4218     3079     3082 1
    4219     2254     2257 1
    4220      607      610 1
    4221     3583     3584 1
    4222     9486     9487 1
    4223     6487     6488 1
    4224     9848     9850 1
    4225     6250     6252 1
    4226     7579     7581 1
    4227     6169     6172 1
    4228     2584     2591 1
    4229     7510     7513 1
    4230     2924     2925 1
    4231      933      935 1
    4232     4864     4866 1
    4233     8245     8246 1
    4234     7798     7801 1
    4235     3082     3085 1
    4236     1508     1509 1
    4237     5984     5985 1
    4238     3879     3880 1
    4239     1106     1109 1
    4240     4758     4759 1
    4241     7126     7127 1
    4242     9613     9615 1
    4243     1233     1234 1
    4244     2353     2354 1
    4245     6400     6401 1
    4246     2384     2385 1
    4247     3178     3179 1
    4248     8341     8342 1
    4249     2704     2705 1
    4250     7333     7334 1
    4251     3121     3122 1
    4252     3807     3808 1
    4253     7837     7838 1
    4254     5381     5382 1
    4255     7114     7115 1
    4256     9828     9829 1
    4257     8263     8264 1
    4258     7759     7760 1
    4259     5548     5551 1
    4260     6332     6335 1
    4261     4834     4837 1
    4262     6538     6541 1
    4263     5126     5127 1
    4264     9583     9584 1
    4265     8041     8042 1
    4266     8545     8546 1
    4267     4971     4976 1
    4268      767      769 1
    4269     3535     3538 1
    4270     6305     6307 1
    4271     5511     5513 1
    4272     9436     9438 1
    4273     5795     5792 1
    4274     8272     8275 1
    4275      782      785 1
    4276      544      546 1
    4277     5137     5138 1
    4278     7094     7095 1
    4279     9530     9531 1
    4280     1659     1660 1
    4281     2338     2340 1
    4282     3792     3794 1
    4283     5665     5666 1
    4284     7227     7229 1
    4285     1051     1053 1
    4286     7918     7919 1
    4287     1088     1089 1
    4288     8422     8423 1
    4289      517      520 1
    4290      562      564 1
    4291     8089     8090 1
    4292     7516     7518 1
    4293     8524     8526 1
    4294     1075     1076 1
    4295     7270     7273 1
    4296     7585     7588 1
    4297       97       94 1
    4298     3221     3218 1
    4299     5946     5949 1
    4300     2459     2462 1
    4301     8467     8470 1
    4302     5036     5039 1
    4303     6415     6421 1
    4304     7558     7561 1
    4305     5539     5552 1
    4306      574      569 1
    4307     2773     2775 1
    4308     4196     4198 1
    4309     7846     7849 1
    4310     7342     7345 1
    4311     2078     2019 1
    4312     1292     1294 1
    4313     8989     8992 1
    4314     4422     4426 1
    4315     5118     5113 1
    4316     1085     1086 1
    4317     1057     1059 1
    4318     7444     7445 1
    4319     3372     3373 1
    4320     1279     1284 1
    4321     3436     3439 1
    4322     6203     6205 1
    4323     9676     9680 1
    4324      689      691 1
    4325     2233     2236 1
    4326     8742     8745 1
    4327      432      427 1
    4328     1422     1425 1
    4329     5728     5731 1
    4330     3002     3004 1
    4331     3689     3692 1
    4332     4372     4374 1
    4333     4208     4149 1
    4334      457      454 1
    4335     1919     1918 1
    4336     1523     1524 1
    4337     7693     7694 1
    4338     8786     8789 1
    4339     5719     5720 1
    4340     3825     3826 1
    4341     4430     4431 1
    4342     9872     9873 1
    4343     7189     7190 1
    4344     5132     5136 1
    4345     9113     9116 1
    4346      454      456 1
    4347     9139     9140 1
    4348     1930     1931 1
    4349     4285     4286 1
    4350     7666     7609 1
    4351     6792     6793 1
    4352     7258     7261 1
    4353     8320     8321 1
    4354     7816     7817 1
    4355     2825     2826 1
    4356     2308     2309 1
    4357     9301     9303 1
    4358     1298     1300 1
    4359     1998     2001 1
    4360     5535     5537 1
    4361      196      193 1
    4362     5118     5120 1
    4363     4435     4438 1
    4364     4774     4776 1
    4365     7888     7889 1
    4366     1142     1145 1
    4367     4931     4933 1
    4368     7891     7893 1
    4369     5725     5727 1
    4370     3761     3764 1
    4371     6574     6577 1
    4372     4320     4323 1
    4373     6755     6756 1
    4374     9133     9134 1
    4375     1735     1736 1
    4376     1924     1925 1
    4377      127      128 1
    4378     6378     6379 1
    4379     5774     5775 1
    4380     5743     5744 1
    4381     7279     7280 1
    4382     9763     9765 1
    4383     6091     6093 1
    4384     5338     5340 1
    4385     3891     3894 1
    4386     1465     1468 1
    4387      130      133 1
    4388     5424     5427 1
    4389     9895     9896 1
    4390     9686     9687 1
    4391     8686     8687 1
    4392      853      854 1
    4393     6592     6595 1
    4394     1153     1158 1
    4395     5215     5218 1
    4396     9401     9403 1
    4397     8239     8241 1
    4398     1816     1817 1
    4399     9472     9473 1
    4400     6807     6808 1
    4401     1976     1977 1
    4402     1421     1422 1
    4403     1874     1875 1
    4404     6705     6706 1
    4405     9898     9899 1
    4406      257      258 1
    4407     1153     1155 1
    4408     8002     8005 1
    4409     3486     3487 1
    4410      378      379 1
    4411     8020     8021 1
    4412      958      955 1
    4413      843      844 1
    4414     5601     5603 1
    4415     3286     3290 1
    4416     2187     2184 1
    4417     6148     6149 1
    4418     8101     8102 1
    4419     4254     4255 1
    4420     6085     6086 1
    4421     2155     2156 1
    4422     3268     3269 1
    4423      220      221 1
    4424     2088     2089 1
    4425     5855     5856 1
    4426     6919     6920 1
    4427     1782     1783 1
    4428     6613     6614 1
    4429      152      155 1
    4430     3511     3512 1
    4431     3480     3481 1
    4432     8179     8181 1
    4433     7171     7173 1
    4434     1749     1751 1
    4435     3776     3778 1
    4436     6490     6493 1
    4437     5305     5308 1
    4438     3668     3671 1
    4439     5372     5375 1
    4440     2115     2118 1
    4441     9651     9654 1
    4442     8954     8951 1
    4443     3184     3187 1
    4444     6396     6399 1
    4445      659      662 1
    4446     2550     2553 1
    4447     1347     1349 1
    4448     5236     5239 1
    4449     6061     6064 1
    4450     7951     7952 1
    4451     7447     7448 1
    4452     5233     5234 1
    4453      184      185 1
    4454     6937     6938 1
    4455     5299     5301 1
    4456     7798     7800 1
    4457     3647     3650 1
    4458     2828     2831 1
    4459     8581     8583 1
    4460     9722     9723 1
    4461     6959     6960 1
    4462     9251     9254 1
    4463     4381     4384 1
    4464     2544     2547 1
    4465     2033     2036 1
    4466     2958     2961 1
    4467      242      245 1
    4468     3456     3459 1
    4469     5054     5051 1
    4470     7447     7450 1
    4471     7894     7895 1
    4472     7390     7391 1
    4473     4776     4717 1
    4474     9822     9823 1
    4475     7330     7332 1
    4476     4816     4818 1
    4477      631      633 1
    4478     4541     4543 1
    4479     3118     3120 1
    4480     1724     1728 1
    4481     9307     9304 1
    4482     2082     2083 1
    4483     2072     2074 1
    4484      712      714 1
    4485     6565     6567 1
    4486     9816     9819 1
    4487     7912     7915 1
    4488     5589     5591 1
    4489     5853     5847 1
    4490     3126     3129 1
    4491     3018     3019 1
    4492     9576     9577 1
    4493     7492     7493 1
    4494     1746     1748 1
    4495     4952     4954 1
    4496     2416     2418 1
    4497     8972     8973 1
    4498     6027     6029 1
    4499     2350     2352 1
    4500     2562     2564 1
    4501     9845     9847 1
    4502     2979     2981 1
    4503     2131     2136 1
    4504     9688     9686 1
    4505     1121     1123 1
    4506     5566     5573 1
    4507     3694     3695 1
    4508     5882     5883 1
    4509     5913     5914 1
    4510     1359     1362 1
    4511     6620     6621 1
    4512     1434     1435 1
    4513     5039     5040 1
    4514     1161     1162 1
    4515     5836     5837 1
    4516     9863     9864 1
    4517     2393     2394 1
    4518      985      986 1
    4519     7615     7618 1
    4520     9680     9683 1
    4521     4154     4157 1
    4522     4789     4792 1
    4523     8311     8314 1
    4524     1804     1801 1
    4525     1072     1074 1
    4526     3060     3063 1
    4527     6526     6528 1
    4528     2286     2288 1
    4529     5922     5924 1
    4530     9101     9104 1
    4531     9048     9049 1
    4532      698      695 1
    4533     6421     6422 1
    4534     1133     1130 1
    4535     1547     1548 1
    4536     1822     1823 1
    4537     9060     9061 1
    4538       29       28 1
    4539     2955     2952 1
    4540     1897     1898 1
    4541     8726     8727 1
    4542     6728     6729 1
    4543     4378     4375 1
    4544     6453     6454 1
    4545     1729     1730 1
    4546     6314     6316 1
    4547      686      688 1
    4548     5290     5292 1
    4549     6230     6233 1
    4550      457      458 1
    4551     8455     8458 1
    4552     1541     1544 1
    4553     8164     8166 1
    4554     8668     8670 1
    4555     1109     1111 1
    4556     4668     4671 1
    4557     3245     3248 1
    4558     5054     5057 1
    4559     5021     5024 1
    4560      692      695 1
    4561     5363     5365 1
    4562     2236     2238 1
    4563     6157     6159 1
    4564     1309     1306 1
    4565      873      877 1
    4566     6012     6013 1
    4567     6108     6111 1
    4568     5137     5139 1
    4569     7094     7096 1
    4570     5665     5667 1
    4571     7794     7795 1
    4572     3468     3469 1
    4573     9530     9532 1
    4574     7290     7291 1
    4575     1659     1661 1
    4576     7609     7611 1
    4577     4103     4104 1
    4578      329      330 1
    4579     5807     5808 1
    4580     2680     2681 1
    4581     1764     1765 1
    4582     9672     9674 1
    4583     1138     1140 1
    4584     4700     4702 1
    4585     2961     2962 1
    4586     1456     1458 1
    4587     6372     6374 1
    4588     4033     4035 1
    4589     7479     7482 1
    4590     7983     7986 1
    4591      223      225 1
    4592     4128     4130 1
    4593     4561     4562 1
    4594     3780     3782 1
    4595      816      817 1
    4596     9342     9344 1
    4597     3109     3111 1
    4598     7321     7323 1
    4599     9789     9790 1
    4600     4722     4724 1
    4601     2502     2505 1
    4602     7318     7319 1
    4603     4529     4530 1
    4604     1737     1739 1
    4605     6959     6968 1
    4606     2984     2987 1
    4607     3943     3944 1
    4608      794      796 1
    4609     1885     1886 1
    4610     1248     1250 1
    4611     4218     4219 1
    4612     4822     4823 1
    4613      652      653 1
    4614     1773     1770 1
    4615     3912     3913 1
    4616     3723     3724 1
    4617     3030     3033 1
    4618     9419     9421 1
    4619     8257     8259 1
    4620     8277     8275 1
    4621     5571     5573 1
    4622     9798     9801 1
    4623     6015     6017 1
    4624     7903     7905 1
    4625     6015     6018 1
    4626     6487     6489 1
    4627     8298     8301 1
    4628     4688     4691 1
    4629     8599     8602 1
    4630     6227     6230 1
    4631     5348     5351 1
    4632     3160     3157 1
    4633     1595     1597 1
    4634      746      748 1
    4635     8116     8119 1
    4636     7360     7361 1
    4637      758      761 1
    4638     9704     9705 1
    4639     8368     8369 1
    4640     8245     8247 1
    4641      565      567 1
    4642     4711     4712 1
    4643     8461     8462 1
    4644     6339     6340 1
    4645     1572     1573 1
    4646     4120     4121 1
    4647     1295     1300 1
    4648     9110     9111 1
    4649     5381     5383 1
    4650     7114     7116 1
    4651     7759     7761 1
    4652     8263     8265 1
    4653     6276     6283 1
    4654      741      742 1
    4655     9522     9523 1
    4656     7531     7528 1
    4657     5432     5433 1
    4658      399      400 1
    4659     9504     9506 1
    4660     4665     4668 1
    4661     8748     8745 1
    4662     1326     1329 1
    4663     2144     2146 1
    4664     5271     5273 1
    4665     3567     3569 1
    4666     3575     3581 1
    4667     9607     9610 1
    4668     5166     5167 1
    4669     2888     2890 1
    4670     9895     9897 1
    4671     2984     2983 1
    4672     6514     6517 1
    4673      640      643 1
    4674     5329     5332 1
    4675     1320     1323 1
    4676     5140     5143 1
    4677     4545     4550 1
    4678     2553     2556 1
    4679      897      899 1
    4680      193      195 1
    4681     3453     3455 1
    4682     3728     3730 1
    4683     5558     5560 1
    4684     8197     8198 1
    4685     2402     2403 1
    4686     9233     9235 1
    4687     6629     6630 1
    4688      601      602 1
    4689     5275     5279 1
    4690     3571     3575 1
    4691     5196     5199 1
    4692     7900     7903 1
    4693     6116     6119 1
    4694     8374     8377 1
    4695     1208     1209 1
    4696     9539     9540 1
    4697     1066     1067 1
    4698     8826     8830 1
    4699      190      187 1
    4700        3        2 1
    4701     7990     7991 1
    4702     7486     7487 1
    4703     9222     9223 1
    4704     9795     9796 1
    4705     4163     4164 1
    4706     9460     9462 1
    4707     3641     3638 1
    4708     2831     2834 1
    4709     8605     8608 1
    4710     9430     9433 1
    4711     1828     1831 1
    4712     4351     4354 1
    4713     6299     6302 1
    4714     5326     5327 1
    4715     8769     8770 1
    4716     6160     6161 1
    4717     4124     4125 1
    4718     8008     8009 1
    4719     9351     9352 1
    4720      440      441 1
    4721     4492     4433 1
    4722     8512     8513 1
    4723     3477     3479 1
    4724     4703     4705 1
    4725      338      340 1
    4726     6916     6918 1
    4727     2085     2087 1
    4728      423      425 1
    4729     6006     6008 1
    4730     9076     9080 1
    4731     3882     3885 1
    4732     5861     5863 1
    4733     5888     5891 1
    4734     9563     9566 1
    4735     5126     5113 1
    4736     1288     1289 1
    4737     7564     7565 1
    4738     4462     4459 1
    4739     6529     6530 1
    4740     1746     1743 1
    4741     4572     4579 1
    4742     4193     4196 1
    4743     9545     9547 1
    4744     5045     5047 1
    4745     2946     2949 1
    4746     1930     1932 1
    4747     4285     4287 1
    4748     9139     9141 1
    4749      698      699 1
    4750     4274     4275 1
    4751     6792     6794 1
    4752     1272     1274 1
    4753     7846     7847 1
    4754     5622     5623 1
    4755     7342     7343 1
    4756     4743     4744 1
    4757      312      315 1
    4758      290      291 1
    4759     2094     2095 1
    4760     2063     2064 1
    4761     4583     4585 1
    4762     3160     3162 1
    4763     1637     1640 1
    4764     5187     5189 1
    4765      958      960 1
    4766     4998     5000 1
    4767     6484     6487 1
    4768     4912     4915 1
    4769     3964     3965 1
    4770     8783     8784 1
    4771     9195     9197 1
    4772     7012     7013 1
    4773     7999     8000 1
    4774     9133     9135 1
    4775     6755     6757 1
    4776     1924     1926 1
    4777     6786     6788 1
    4778     3015     3018 1
    4779     8656     8659 1
    4780     2566     2567 1
    4781     5598     5599 1
    4782      226      229 1
    4783     6233     6234 1
    4784     8422     8365 1
    4785     2860     2864 1
    4786     4262     4265 1
    4787     8613     8616 1
    4788     8109     8112 1
    4789     4281     4285 1
    4790     1133     1135 1
    4791     9122     9124 1
    4792     3450     3453 1
    4793     9230     9233 1
    4794     2027     2030 1
    4795      743      744 1
    4796     1695     1698 1
    4797     6716     6719 1
    4798     8683     8686 1
    4799     8792     8795 1
    4800     3925     3928 1
    4801     6894     6897 1
    4802     2424     2427 1
    4803     6676     6679 1
    4804     7591     7593 1
    4805     8095     8097 1
    4806     3447     3450 1
    4807     6305     6308 1
    4808     2024     2027 1
    4809     1016     1011 1
    4810     6142     6144 1
    4811     7585     7586 1
    4812     3251     3254 1
    4813     4674     4677 1
    4814     8020     8022 1
    4815     7645     7647 1
    4816     4780     4782 1
    4817     4293     4295 1
    4818     5311     5314 1
    4819     8593     8596 1
    4820     6910     6913 1
    4821     3317     3320 1
    4822     5206     5209 1
    4823     7420     7423 1
    4824     2937     2938 1
    4825     4329     4330 1
    4826     4964     4965 1
    4827     3230     3233 1
    4828     7540     7541 1
    4829     4622     4625 1
    4830     1526     1529 1
    4831     8046     8049 1
    4832     5966     5965 1
    4833     4456     4458 1
    4834     3662     3664 1
    4835     3033     3035 1
    4836     2239     2241 1
    4837     2208     2210 1
    4838     5540     5542 1
    4839     7381     7384 1
    4840     8632     8635 1
    4841     2640     2641 1
    4842      405      406 1
    4843      507      510 1
    4844     9376     9377 1
    4845     8509     8510 1
    4846     4569     4575 1
    4847     9254     9257 1
    4848     4384     4387 1
    4849     2961     2964 1
    4850     8005     8006 1
    4851     1576     1563 1
    4852     7501     7502 1
    4853     2786     2789 1
    4854     7597     7599 1
    4855      130      127 1
    4856     8674     8617 1
    4857     8170     8113 1
    4858     4616     4617 1
    4859     4138     4139 1
    4860     3224     3225 1
    4861      199      201 1
    4862     1640     1641 1
    4863      230      231 1
    4864     6045     6046 1
    4865     2411     2412 1
    4866     6680     6675 1
    4867     4135     4137 1
    4868     6563     6557 1
    4869     6317     6319 1
    4870     1242     1243 1
    4871     8876     8880 1
    4872     2002     2005 1
    4873     6792     6795 1
    4874     4813     4816 1
    4875     4569     4571 1
    4876     7105     7107 1
    4877     7258     7260 1
    4878     5061     5064 1
    4879     3601     3604 1
    4880     2030     2033 1
    4881     1504     1505 1
    4882      556      559 1
    4883     9860     9863 1
    4884     3453     3456 1
    4885     8722     8723 1
    4886     5109     5110 1
    4887     8742     8743 1
    4888     8302     8303 1
    4889     1474     1477 1
    4890     4692     4693 1
    4891     9236     9238 1
    4892     4146     4148 1
    4893     2943     2945 1
    4894     3387     3389 1
    4895     7963     7965 1
    4896     5245     5247 1
    4897     2912     2914 1
    4898     4335     4337 1
    4899     7492     7494 1
    4900     8500     8502 1
    4901     3399     3402 1
    4902     9666     9669 1
    4903     7542     7545 1
    4904     7097     7099 1
    4905     1631     1633 1
    4906     6680     6682 1
    4907     2773     2776 1
    4908     4196     4199 1
    4909      995     1004 1
    4910     1782     1785 1
    4911     3694     3696 1
    4912     5913     5915 1
    4913     5882     5884 1
    4914     1167     1168 1
    4915     1313     1306 1
    4916     5251     5253 1
    4917     8473     8475 1
    4918     4628     4630 1
    4919     6363     6365 1
    4920     3236     3238 1
    4921     3205     3207 1
    4922     6955     6957 1
    4923     9633     9635 1
    4924     8035     8037 1
    4925     5943     5944 1
    4926      704      705 1
    4927     1595     1596 1
    4928     4876     4877 1
    4929     7996     7997 1
    4930     1474     1475 1
    4931     7156     7157 1
    4932     2792     2793 1
    4933     4184     4185 1
    4934     3940     3941 1
    4935     2517     2518 1
    4936     3909     3910 1
    4937     3720     3721 1
    4938       88       90 1
    4939     6471     6468 1
    4940     6502     6499 1
    4941     3027     3028 1
    4942     5054     5055 1
    4943     6441     6442 1
    4944     9357     9358 1
    4945     2964     2967 1
    4946      248      251 1
    4947     4387     4390 1
    4948     6039     6040 1
    4949     1961     1964 1
    4950     9498     9501 1
    4951     6580     6582 1
    4952     8957     8960 1
    4953     7855     7798 1
    4954     1042     1044 1
    4955     3433     3434 1
    4956      226      228 1
    4957     4036     4038 1
    4958     7596     7594 1
    4959     3613     3615 1
    4960     2221     2223 1
    4961     2190     2192 1
    4962     9913     9914 1
    4963     9080     9082 1
    4964     2544     2545 1
    4965     1909     1910 1
    4966     9445     9448 1
    4967      816      818 1
    4968     3468     3471 1
    4969     6094     6096 1
    4970     1538     1540 1
    4971      955      957 1
    4972     2057     2059 1
    4973     7618     7619 1
    4974     9789     9791 1
    4975     1335     1336 1
    4976     5438     5441 1
    4977      727      728 1
    4978     9313     9314 1
    4979     3390     3393 1
    4980     2758     2761 1
    4981     3257     3259 1
    4982     4680     4682 1
    4983     2103     2104 1
    4984     4427     4428 1
    4985      181      182 1
    4986     5540     5541 1
    4987     1279     1288 1
    4988     8641     8644 1
    4989     4764     4766 1
    4990     4795     4797 1
    4991     5870     5871 1
    4992     7033     7036 1
    4993     1598     1601 1
    4994     2251     2253 1
    4995     3190     3191 1
    4996     6178     6181 1
    4997     3221     3222 1
    4998     7462     7463 1
    4999     8470     8471 1
    5000     6209     6212 1
    5001     5248     5249 1
    5002     6786     6787 1
    5003     3320     3323 1
    5004     7423     7426 1
    5005     2570     2557 1
    5006     6931     6933 1
    5007     6139     6141 1
    5008     6900     6902 1
    5009     4079     4081 1
    5010     1451     1510 1
    5011      359      361 1
    5012     3523     3525 1
    5013     2656     2658 1
    5014      872      876 1
    5015     6841     6847 1
    5016     9395     9397 1
    5017     8822     8824 1
    5018     5332     5333 1
    5019     2822     2823 1
    5020     3610     3611 1
    5021     8152     8153 1
    5022     4706     4710 1
    5023     6400     6403 1
    5024     1486     1488 1
    5025     8969     8970 1
    5026     9333     9334 1
    5027     9542     9543 1
    5028     9107     9110 1
    5029     8760     8761 1
    5030     3879     3882 1
    5031     4758     4761 1
    5032      432      434 1
    5033     6952     6954 1
    5034     7126     7129 1
    5035     6088     6089 1
    5036     1233     1236 1
    5037     4879     4881 1
    5038      946      948 1
    5039     3502     3504 1
    5040     3471     3473 1
    5041     2079     2081 1
    5042     8140     8143 1
    5043     9492     9495 1
    5044     6568     6569 1
    5045     6836     6837 1
    5046     7324     7326 1
    5047     5085     5087 1
    5048     4829     4842 1
    5049     1456     1453 1
    5050     4535     4537 1
    5051     3112     3114 1
    5052     3859     3861 1
    5053     8332     8334 1
    5054     3239     3241 1
    5055     6568     6571 1
    5056     9754     9757 1
    5057     7024     7027 1
    5058     2356     2359 1
    5059     4916     4919 1
    5060     5375     5376 1
    5061     4807     4810 1
    5062     7546     7549 1
    5063     7540     7483 1
    5064     1643     1645 1
    5065      804      801 1
    5066     9142     9145 1
    5067     8575     8572 1
    5068     2363     2366 1
    5069      593      589 1
    5070     5387     5388 1
    5071     8440     8441 1
    5072     3329     3330 1
    5073     5218     5219 1
    5074     2140     2141 1
    5075     8200     8201 1
    5076     3499     3500 1
    5077     2045     2046 1
    5078     1891     1892 1
    5079     2248     2251 1
    5080      301      302 1
    5081     4419     4420 1
    5082     2996     2997 1
    5083     1973     1976 1
    5084     4725     4728 1
    5085     9601     9598 1
    5086     8218     8219 1
    5087     7990     7992 1
    5088     7486     7488 1
    5089     9222     9224 1
    5090     6103     6105 1
    5091     5686     5688 1
    5092     1462     1464 1
    5093     9795     9797 1
    5094     8848     8849 1
    5095     9842     9844 1
    5096     5114     5117 1
    5097     7942     7944 1
    5098     1202     1203 1
    5099     4998     5005 1
    5100     8769     8771 1
    5101     5326     5328 1
    5102     3727     3720 1
    5103     1156     1159 1
    5104     4296     4297 1
    5105     6126     6127 1
    5106      306      301 1
    5107     6148     6150 1
    5108     8101     8103 1
    5109     4662     4665 1
    5110     6091     6094 1
    5111     4254     4256 1
    5112     2598     2595 1
    5113     2236     2239 1
    5114     5786     5788 1
    5115      139      141 1
    5116     2150     2152 1
    5117     5566     5568 1
    5118     8641     8642 1
    5119     8748     8751 1
    5120     8137     8138 1
    5121     4719     4721 1
    5122     6526     6529 1
    5123     2286     2289 1
    5124     5922     5925 1
    5125     1054     1057 1
    5126     2779     2776 1
    5127     8227     8230 1
    5128      698      700 1
    5129     4274     4276 1
    5130     7222     7164 1
    5131     5952     5955 1
    5132     4577     4579 1
    5133     9201     9204 1
    5134     1982     1984 1
    5135     7003     7005 1
    5136     9160     9162 1
    5137     4251     4254 1
    5138     3402     3405 1
    5139      109      112 1
    5140     6329     6332 1
    5141     1498     1501 1
    5142     8833     8836 1
    5143     8164     8165 1
    5144     8668     8669 1
    5145     1109     1110 1
    5146     5172     5175 1
    5147     9107     9108 1
    5148     5916     5917 1
    5149      504      505 1
    5150       19       17 1
    5151     4856     4858 1
    5152     1030     1031 1
    5153     5761     5762 1
    5154     2665     2666 1
    5155     2634     2635 1
    5156     5792     5793 1
    5157     8842     8845 1
    5158     5490     5493 1
    5159     4838     4841 1
    5160     3928     3930 1
    5161      825      822 1
    5162     3749     3752 1
    5163     6749     6750 1
    5164     5690     5691 1
    5165     2468     2469 1
    5166     2326     2329 1
    5167     6091     6088 1
    5168     3144     3145 1
    5169     1480     1482 1
    5170     1511     1513 1
    5171     4554     4557 1
    5172     1063     1066 1
    5173      538      540 1
    5174     3492     3489 1
    5175     6468     6469 1
    5176     6499     6500 1
    5177     1758     1759 1
    5178     4980     4981 1
    5179     1795     1796 1
    5180     4934     4935 1
    5181     5073     5074 1
    5182     4438     4439 1
    5183     5850     5851 1
    5184     7453     7455 1
    5185     4151     4153 1
    5186     5239     5241 1
    5187     2112     2114 1
    5188      846      848 1
    5189     3964     3961 1
    5190     2653     2656 1
    5191     6484     6485 1
    5192     2842     2843 1
    5193     4749     4750 1
    5194     2308     2310 1
    5195     7006     7009 1
    5196     5264     5267 1
    5197     4644     4641 1
    5198     2619     2622 1
    5199     8188     8191 1
    5200     3996     4000 1
    5201     2486     2489 1
    5202     3297     3298 1
    5203     2686     2687 1
    5204     6151     6154 1
    5205     5381     5384 1
    5206     7114     7117 1
    5207     7909     7910 1
    5208     2434     2437 1
    5209     3433     3435 1
    5210     6567     6560 1
    5211     7282     7285 1
    5212     6076     6078 1
    5213     5842     5844 1
    5214       81       83 1
    5215     4012     4014 1
    5216     6595     6597 1
    5217     9463     9465 1
    5218      408      410 1
    5219      245      247 1
    5220     2970     2972 1
    5221      121      123 1
    5222     9263     9265 1
    5223     9836     9838 1
    5224     5903     5906 1
    5225     6003     6006 1
    5226     6916     6913 1
    5227     8722     8724 1
    5228     4777     4778 1
    5229     3835     3840 1
    5230     5629     5630 1
    5231     3410     3411 1
    5232     1465     1462 1
    5233     6684     6675 1
    5234     7876     7877 1
    5235     5260     5263 1
    5236     5677     5680 1
    5237     1683     1684 1
    5238     6943     6940 1
    5239     5413     5414 1
    5240     7318     7320 1
    5241     4529     4531 1
    5242     8266     8267 1
    5243     7762     7763 1
    5244     1303     1309 1
    5245      547      550 1
    5246     1350     1352 1
    5247     1441     1445 1
    5248     7141     7144 1
    5249     4946     4948 1
    5250     9739     9740 1
    5251     5847     5849 1
    5252      877      878 1
    5253     2094     2097 1
    5254     1156     1158 1
    5255     3517     3520 1
    5256     3601     3602 1
    5257     9698     9700 1
    5258     7268     7267 1
    5259     9751     9754 1
    5260     6849     6852 1
    5261     5311     5312 1
    5262     8593     8594 1
    5263      622      623 1
    5264      260      263 1
    5265     9433     9434 1
    5266     8224     8225 1
    5267     5067     5068 1
    5268     3350     3351 1
    5269     4360     4361 1
    5270     7957     7958 1
    5271     2906     2907 1
    5272     7996     7998 1
    5273     3409     3422 1
    5274     1036     1037 1
    5275     3045     3048 1
    5276     4499     4502 1
    5277     8119     8121 1
    5278     7177     7178 1
    5279     2390     2391 1
    5280     3813     3814 1
    5281     9922     9924 1
    5282     6131     6132 1
    5283     8857     8858 1
    5284     6055     6056 1
    5285     4499     4501 1
    5286     2822     2825 1
    5287     6743     6746 1
    5288     6867     6868 1
    5289     3305     3306 1
    5290     5163     5164 1
    5291     3045     3047 1
    5292     6273     6279 1
    5293     4280     4283 1
    5294     9442     9444 1
    5295     4967     4969 1
    5296     5517     5519 1
    5297       60       62 1
    5298     4550     4552 1
    5299     2127     2128 1
    5300     5444     5445 1
    5301     2718     2719 1
    5302     6323     6324 1
    5303     4015     4016 1
    5304     6381     6378 1
    5305     6127     6131 1
    5306     3465     3468 1
    5307     6348     6350 1
    5308     2323     2325 1
    5309     3746     3748 1
    5310     2598     2600 1
    5311     8536     8539 1
    5312     4021     4023 1
    5313     2420     2415 1
    5314     7270     7267 1
    5315     2745     2743 1
    5316      671      673 1
    5317     2199     2200 1
    5318     9466     9468 1
    5319      921      923 1
    5320     4906     4908 1
    5321     4937     4939 1
    5322     8707     8710 1
    5323     1940     1943 1
    5324     6221     6224 1
    5325     8314     8316 1
    5326     2269     2271 1
    5327     5795     5798 1
    5328     1852     1854 1
    5329     9398     9399 1
    5330     5369     5372 1
    5331     1834     1831 1
    5332     8889     8891 1
    5333     5632     5635 1
    5334     7660     7662 1
    5335     7843     7844 1
    5336     7339     7340 1
    5337     1422     1424 1
    5338     3689     3691 1
    5339     2266     2268 1
    5340     7531     7533 1
    5341     1662     1664 1
    5342     2456     2458 1
    5343     9278     9279 1
    5344     7462     7465 1
    5345     3456     3457 1
    5346     5332     5334 1
    5347     2640     2643 1
    5348     7471     7472 1
    5349     7975     7976 1
    5350     8479     8480 1
    5351     9116     9119 1
    5352     1127     1128 1
    5353     2885     2887 1
    5354     9213     9215 1
    5355     1568     1571 1
    5356     1985     1988 1
    5357     1453     1455 1
    5358     9410     9411 1
    5359     7738     7740 1
    5360     7234     7236 1
    5361     8665     8668 1
    5362     7729     7730 1
    5363     8233     8234 1
    5364     4441     4442 1
    5365     1190     1187 1
    5366      272      273 1
    5367      285      294 1
    5368     2577     2581 1
    5369     2048     2049 1
    5370      417      418 1
    5371     7605     7608 1
    5372     3396     3399 1
    5373       57       54 1
    5374     5598     5600 1
    5375     2566     2568 1
    5376     1779     1782 1
    5377     6233     6235 1
    5378     5558     5562 1
    5379     6822     6825 1
    5380      891      893 1
    5381     9854     9856 1
    5382     7675     7677 1
    5383     7105     7108 1
    5384      900      897 1
    5385     2320     2322 1
    5386     2103     2106 1
    5387     5387     5389 1
    5388     4972     4975 1
    5389      556      553 1
    5390     9248     9245 1
    5391     3644     3646 1
    5392     1329     1331 1
    5393     6855     6858 1
    5394     3967     3968 1
    5395     7015     7016 1
    5396     9745     9746 1
    5397     4792     4793 1
    5398     6058     6059 1
    5399      599      600 1
    5400     4323     4324 1
    5401     2734     2735 1
    5402     4572     4573 1
    5403     7573     7575 1
    5404     1825     1826 1
    5405     8077     8079 1
    5406     3375     3376 1
    5407     9719     9720 1
    5408      732      727 1
    5409      689      692 1
    5410     3103     3105 1
    5411     4801     4803 1
    5412     6342     6343 1
    5413     2644     2647 1
    5414     5232     5230 1
    5415     6284     6287 1
    5416     2967     2970 1
    5417     1054     1055 1
    5418     9701     9702 1
    5419     2988     2991 1
    5420     1794     1735 1
    5421     3946     3949 1
    5422     3915     3918 1
    5423      764      767 1
    5424     8473     8476 1
    5425     8816     8819 1
    5426     6073     6074 1
    5427     9110     9113 1
    5428     9913     9916 1
    5429     4538     4539 1
    5430     1332     1333 1
    5431     5088     5089 1
    5432     3115     3116 1
    5433      446      447 1
    5434     7246     7247 1
    5435     7750     7751 1
    5436     5719     5722 1
    5437     5520     5521 1
    5438     8872     8873 1
    5439     8467     8468 1
    5440     2726     2728 1
    5441     3100     3101 1
    5442     7312     7313 1
    5443     9526     9527 1
    5444     3218     3219 1
    5445     4523     4524 1
    5446     7012     7015 1
    5447     3964     3967 1
    5448     3659     3662 1
    5449     2205     2208 1
    5450     8491     8493 1
    5451       51       52 1
    5452     2218     2221 1
    5453     4088     4091 1
    5454       84       85 1
    5455     4112     4113 1
    5456     7201     7202 1
    5457     5517     5520 1
    5458     1779     1780 1
    5459     7705     7706 1
    5460     1590     1591 1
    5461     8443     8446 1
    5462     2581     2582 1
    5463     6844     6851 1
    5464     5397     5402 1
    5465     5659     5660 1
    5466     2637     2639 1
    5467     3130     3132 1
    5468     2668     2670 1
    5469     4060     4062 1
    5470     2341     2344 1
    5471     8733     8735 1
    5472     1269     1271 1
    5473     5100     5102 1
    5474     3276     3279 1
    5475     6345     6348 1
    5476     9845     9848 1
    5477     8980     8981 1
    5478     4952     4955 1
    5479     1989     1994 1
    5480     3758     3761 1
    5481      495      497 1
    5482     1091     1093 1
    5483     5462     5465 1
    5484     3126     3128 1
    5485     6768     6770 1
    5486     9169     9171 1
    5487     2495     2498 1
    5488     4270     4261 1
    5489      304      308 1
    5490     8323     8325 1
    5491      341      344 1
    5492     5413     5418 1
    5493     9739     9741 1
    5494      877      879 1
    5495     3601     3603 1
    5496     1269     1272 1
    5497     2798     2801 1
    5498     5894     5897 1
    5499     8029     8032 1
    5500      570      572 1
    5501      840      841 1
    5502     1369     1370 1
    5503     3366     3368 1
    5504     4589     4591 1
    5505      619      620 1
    5506     5064     5065 1
    5507     5369     5370 1
    5508     7164     7165 1
    5509     1387     1388 1
    5510     8948     8949 1
    5511     6810     6811 1
    5512     1508     1510 1
    5513     7668     7669 1
    5514     6557     6558 1
    5515      991      994 1
    5516     7064     7065 1
    5517     7561     7562 1
    5518     1359     1360 1
    5519     1137     1150 1
    5520      112      114 1
    5521     1705     1710 1
    5522      457      516 1
    5523     9001     9003 1
    5524     2332     2329 1
    5525     4357     4359 1
    5526     4879     4882 1
    5527     5755     5757 1
    5528     4961     4963 1
    5529     1402     1404 1
    5530     9804     9806 1
    5531     6746     6747 1
    5532      819      821 1
    5533      788      790 1
    5534     8497     8500 1
    5535     7489     7492 1
    5536     7993     7996 1
    5537     9839     9841 1
    5538     6290     6292 1
    5539     7408     7410 1
    5540     8017     8020 1
    5541     4990     4994 1
    5542      486      488 1
    5543     8527     8530 1
    5544     8530     8531 1
    5545     7522     7523 1
    5546     8026     8027 1
    5547     2008     2012 1
    5548     3773     3776 1
    5549     2220     2161 1
    5550     2072     2075 1
    5551     4777     4779 1
    5552      752      753 1
    5553     9030     9033 1
    5554     2726     2729 1
    5555      483      485 1
    5556     9283     9284 1
    5557     7528     7530 1
    5558     9004     9005 1
    5559     9819     9822 1
    5560     9610     9613 1
    5561     9898     9901 1
    5562     2396     2397 1
    5563     3680     3683 1
    5564     2915     2916 1
    5565     4369     4370 1
    5566     1137     1146 1
    5567     8839     8836 1
    5568      498      495 1
    5569     7507     7504 1
    5570     8011     8008 1
    5571     5502     5504 1
    5572     2931     2933 1
    5573     2900     2902 1
    5574     4906     4903 1
    5575     2558     2561 1
    5576     9663     9664 1
    5577     3311     3312 1
    5578     7264     7265 1
    5579     6042     6044 1
    5580     9448     9450 1
    5581     1856     1858 1
    5582     5943     5946 1
    5583      704      707 1
    5584     4120     4122 1
    5585     4711     4713 1
    5586     1572     1574 1
    5587     6339     6341 1
    5588     8461     8463 1
    5589     8995     8997 1
    5590      211      213 1
    5591     5264     5266 1
    5592     3465     3467 1
    5593      236      238 1
    5594      326      328 1
    5595      205      207 1
    5596     9339     9342 1
    5597     3021     3024 1
    5598     9522     9524 1
    5599     3106     3109 1
    5600     3728     3731 1
    5601     4987     4992 1
    5602     4595     4598 1
    5603     5740     5743 1
    5604     7777     7779 1
    5605     7273     7275 1
    5606     7825     7826 1
    5607     3840     3841 1
    5608     2834     2835 1
    5609     4532     4533 1
    5610     1863     1864 1
    5611     5499     5500 1
    5612     5468     5469 1
    5613     8851     8852 1
    5614     5335     5336 1
    5615     4731     4732 1
    5616     2758     2759 1
    5617     2789     2790 1
    5618     2891     2892 1
    5619      350      351 1
    5620     7930     7932 1
    5621     3323     3325 1
    5622     7426     7428 1
    5623     6018     6021 1
    5624     9866     9863 1
    5625     5894     5895 1
    5626     2245     2242 1
    5627     3712     3713 1
    5628     4066     4007 1
    5629     5897     5900 1
    5630     9807     9808 1
    5631     2553     2555 1
    5632     5713     5716 1
    5633     3305     3308 1
    5634     1792     1795 1
    5635     5251     5252 1
    5636     4403     4412 1
    5637     5662     5663 1
    5638     6456     6457 1
    5639     2897     2899 1
    5640      927      928 1
    5641     3770     3772 1
    5642     3789     3790 1
    5643     2366     2367 1
    5644     4308     4309 1
    5645     2335     2336 1
    5646      285      290 1
    5647      541      543 1
    5648     4403     4416 1
    5649     1582     1584 1
    5650     3360     3362 1
    5651     7936     7938 1
    5652     7432     7434 1
    5653     4160     4163 1
    5654      854      857 1
    5655     2132     2135 1
    5656     6762     6764 1
    5657     4659     4662 1
    5658     7315     7316 1
    5659     4526     4527 1
    5660     2861     2865 1
    5661     7699     7700 1
    5662     1773     1774 1
    5663     6635     6636 1
    5664     2408     2409 1
    5665     2999     3000 1
    5666     4422     4423 1
    5667     5571     5572 1
    5668     3831     3832 1
    5669     9833     9834 1
    5670     9260     9261 1
    5671     2363     2364 1
    5672     4665     4666 1
    5673     3755     3756 1
    5674     7780     7782 1
    5675      465      467 1
    5676     4453     4456 1
    5677     7453     7456 1
    5678     2112     2115 1
    5679     5239     5242 1
    5680     8257     8260 1
    5681     2390     2393 1
    5682     1553     1556 1
    5683     1874     1877 1
    5684     8254     8256 1
    5685     4082     4085 1
    5686     8605     8602 1
    5687     5354     5351 1
    5688     5752     5753 1
    5689     4719     4720 1
    5690     5681     5682 1
    5691     8278     8281 1
    5692     1317     1320 1
    5693     5810     5813 1
    5694     2428     2429 1
    5695     4206     4207 1
    5696     3381     3382 1
    5697     3851     3852 1
    5698      396      397 1
    5699     3855     3859 1
    5700     6435     6437 1
    5701     7834     7836 1
    5702     1175     1177 1
    5703      646      648 1
    5704     5271     5276 1
    5705     9142     9144 1
    5706     3993     3998 1
    5707     3567     3572 1
    5708     1792     1794 1
    5709     1848     1851 1
    5710     9216     9213 1
    5711     8398     8395 1
    5712     3918     3921 1
    5713      436      437 1
    5714     1437     1442 1
    5715     7660     7663 1
    5716     7621     7623 1
    5717     5864     5866 1
    5718     4774     4777 1
    5719     6076     6079 1
    5720     6595     6598 1
    5721     4012     4015 1
    5722      408      411 1
    5723     8966     8968 1
    5724      582      569 1
    5725     7618     7621 1
    5726     1550     1552 1
    5727     7168     7170 1
    5728     4073     4075 1
    5729     3175     3177 1
    5730     7672     7674 1
    5731     1421     1426 1
    5732     7873     7876 1
    5733     6423     6426 1
    5734     2300     2301 1
    5735      384      381 1
    5736     7627     7628 1
    5737     3066     3067 1
    5738     4520     4521 1
    5739     8757     8758 1
    5740     7813     7814 1
    5741     4024     4025 1
    5742     2601     2602 1
    5743     1843     1844 1
    5744     3405     3406 1
    5745     1239     1240 1
    5746     5526     5527 1
    5747     5701     5705 1
    5748     9048     9051 1
    5749     4937     4940 1
    5750     8836     8837 1
    5751     1202     1205 1
    5752     2937     2939 1
    5753     4329     4331 1
    5754     5181     5184 1
    5755     4964     4966 1
    5756     1266     1268 1
    5757     4737     4739 1
    5758     1610     1612 1
    5759     7249     7252 1
    5760     5700     5701 1
    5761      196      198 1
    5762     3541     3543 1
    5763     1718     1705 1
    5764     2118     2120 1
    5765     3073     3075 1
    5766     4465     4467 1
    5767     4761     4763 1
    5768     5586     5588 1
    5769     3882     3884 1
    5770     6496     6498 1
    5771     2637     2640 1
    5772     7129     7131 1
    5773      541      542 1
    5774     3462     3463 1
    5775     9516     9518 1
    5776      139      136 1
    5777     4943     4946 1
    5778     8389     8391 1
    5779     4393     4396 1
    5780     7885     7887 1
    5781       24       20 1
    5782     9726     9730 1
    5783     6780     6782 1
    5784     6520     6523 1
    5785     4212     4215 1
    5786     1964     1967 1
    5787     8059     8062 1
    5788     6009     6012 1
    5789     9904     9905 1
    5790     5088     5090 1
    5791     4538     4540 1
    5792     1332     1334 1
    5793     3115     3117 1
    5794      446      448 1
    5795     6688     6689 1
    5796     4984     4985 1
    5797     1288     1291 1
    5798     2411     2413 1
    5799     4138     4140 1
    5800     4616     4618 1
    5801     6045     6047 1
    5802     6351     6353 1
    5803     3224     3226 1
    5804     2314     2316 1
    5805     1994     1996 1
    5806     6702     6704 1
    5807     7702     7704 1
    5808     9180     9183 1
    5809      375      377 1
    5810     5122     5113 1
    5811     3483     3485 1
    5812     4399     4402 1
    5813     3982     3985 1
    5814     5076     5077 1
    5815     5410     5411 1
    5816      649      650 1
    5817     8936     8937 1
    5818      286      287 1
    5819     2008     2009 1
    5820     2581     2583 1
    5821     1440     1443 1
    5822      804      805 1
    5823     5656     5657 1
    5824     5323     5324 1
    5825     5354     5355 1
    5826     8605     8606 1
    5827     2831     2832 1
    5828     1526     1528 1
    5829     7483     7484 1
    5830     5629     5631 1
    5831     1082     1083 1
    5832     3070     3072 1
    5833     3410     3412 1
    5834     7987     7988 1
    5835     8910     8913 1
    5836     4632     4634 1
    5837     6737     6734 1
    5838     6459     6462 1
    5839     8278     8280 1
    5840     5432     5435 1
    5841     3761     3763 1
    5842     5940     5941 1
    5843     5030     5031 1
    5844     6765     6766 1
    5845     6734     6735 1
    5846     4987     4989 1
    5847     2178     2179 1
    5848     4798     4801 1
    5849     4767     4770 1
    5850     5147     5140 1
    5851     3737     3738 1
    5852     1196     1199 1
    5853     3054     3057 1
    5854     3344     3345 1
    5855      390      391 1
    5856      840      842 1
    5857     5471     5472 1
    5858     1866     1867 1
    5859     3529     3530 1
    5860     1369     1371 1
    5861     1740     1741 1
    5862     2619     2620 1
    5863     6972     6973 1
    5864     7264     7266 1
    5865     9076     9077 1
    5866     8889     8890 1
    5867     7660     7661 1
    5868     7531     7532 1
    5869     6326     6329 1
    5870     5734     5736 1
    5871     2439     2441 1
    5872     6426     6429 1
    5873     5540     5543 1
    5874     2286     2273 1
    5875     8122     8123 1
    5876     6810     6812 1
    5877     8948     8950 1
    5878     1387     1389 1
    5879      359      356 1
    5880     7164     7166 1
    5881     7668     7670 1
    5882     6557     6559 1
    5883     8626     8627 1
    5884     7915     7857 1
    5885     3859     3865 1
    5886     2700     2701 1
    5887     6311     6312 1
    5888     1587     1588 1
    5889      584      582 1
    5890     7636     7637 1
    5891     1000     1002 1
    5892     8922     8924 1
    5893     1393     1390 1
    5894     8518     8521 1
    5895     5928     5930 1
    5896     4004     4006 1
    5897     6224     6227 1
    5898     8317     8320 1
    5899     5897     5899 1
    5900     6722     6724 1
    5901     5126     5129 1
    5902      712      711 1
    5903     2100     2102 1
    5904     1471     1473 1
    5905     6577     6579 1
    5906      263      265 1
    5907      178      180 1
    5908     9272     9274 1
    5909     3169     3171 1
    5910      973      975 1
    5911     7222     7224 1
    5912     3444     3446 1
    5913     5804     5805 1
    5914     7792     7735 1
    5915     9813     9815 1
    5916      834      835 1
    5917     8266     8269 1
    5918     9513     9510 1
    5919     4830     4831 1
    5920     6873     6876 1
    5921     8644     8646 1
    5922     4650     4652 1
    5923     4106     4108 1
    5924     2683     2685 1
    5925     6959     6964 1
    5926     6000     6002 1
    5927     7534     7535 1
    5928     1732     1735 1
    5929     8892     8893 1
    5930      727      729 1
    5931     9313     9315 1
    5932     4804     4807 1
    5933     6783     6786 1
    5934     7726     7668 1
    5935     6245     6246 1
    5936     8933     8934 1
    5937     2360     2361 1
    5938     5828     5829 1
    5939     7555     7556 1
    5940     7240     7243 1
    5941     7744     7747 1
    5942     9619     9622 1
    5943     9339     9336 1
    5944     1227     1230 1
    5945     6258     6260 1
    5946     4459     4461 1
    5947     1607     1609 1
    5948     7042     7044 1
    5949     3977     3978 1
    5950     5559     5563 1
    5951     6931     6934 1
    5952     3523     3526 1
    5953       51       54 1
    5954     1078     1080 1
    5955     7108     7109 1
    5956     2248     2249 1
    5957     3149     3150 1
    5958     1613     1614 1
    5959     9119     9121 1
    5960     8350     8353 1
    5961     2526     2529 1
    5962     5595     5597 1
    5963     5335     5338 1
    5964     4390     4393 1
    5965     6181     6182 1
    5966     2576     2577 1
    5967     6212     6213 1
    5968     5058     5061 1
    5969     5992     5993 1
    5970     9022     9025 1
    5971     2166     2167 1
    5972     4465     4468 1
    5973       31       25 1
    5974     8907     8908 1
    5975     1788     1789 1
    5976     9057     9058 1
    5977     3272     3275 1
    5978     2695     2698 1
    5979     9810     9813 1
    5980       42       44 1
    5981     7261     7264 1
    5982     7825     7827 1
    5983     2834     2836 1
    5984     4532     4534 1
    5985     3840     3842 1
    5986     2199     2201 1
    5987     2958     2959 1
    5988     4381     4382 1
    5989     9251     9252 1
    5990     5532     5534 1
    5991     6876     6878 1
    5992     3575     3577 1
    5993      242      243 1
    5994     1593     1594 1
    5995     7708     7709 1
    5996     8212     8213 1
    5997     7204     7205 1
    5998     1275     1278 1
    5999     8284     8286 1
    6000     8413     8415 1
    6001     8913     8915 1
    6002      770      767 1
    6003      550      552 1
    6004     1051     1052 1
    6005     7227     7228 1
    6006     3782     3723 1
    6007     4169     4172 1
    6008     5662     5664 1
    6009     6456     6458 1
    6010     6392     6395 1
    6011     1378     1380 1
    6012      414      411 1
    6013      517      519 1
    6014     1879     1880 1
    6015     7876     7879 1
    6016     4949     4952 1
    6017     9842     9845 1
    6018     9060     9063 1
    6019     7717     7720 1
    6020     3996     3998 1
    6021     3018     3021 1
    6022     5870     5873 1
    6023     2076     2078 1
    6024     4493     4490 1
    6025       57       58 1
    6026      495      496 1
    6027     5514     5515 1
    6028     9439     9440 1
    6029     6163     6166 1
    6030     1254     1251 1
    6031     9226     9228 1
    6032     8769     8772 1
    6033     5974     5976 1
    6034     2161     2158 1
    6035     2005     2007 1
    6036     6520     6522 1
    6037     5610     5612 1
    6038     8059     8061 1
    6039     1714     1705 1
    6040     1387     1384 1
    6041     8071     8068 1
    6042     8919     8920 1
    6043     4870     4872 1
    6044     1936     1877 1
    6045     1353     1354 1
    6046     4338     4339 1
    6047      903      904 1
    6048     7183     7184 1
    6049     2946     2947 1
    6050     7687     7688 1
    6051     3819     3820 1
    6052     5429     5432 1
    6053     1036     1039 1
    6054     5955     5956 1
    6055     1048     1051 1
    6056     9695     9698 1
    6057     1106     1103 1
    6058     9416     9417 1
    6059     7180     7181 1
    6060      214      215 1
    6061      402      403 1
    6062      100      101 1
    6063     5813     5814 1
    6064     3816     3817 1
    6065     9657     9659 1
    6066     5523     5525 1
    6067     8188     8189 1
    6068     8041     8043 1
    6069     8545     8547 1
    6070     9583     9585 1
    6071     1230     1233 1
    6072     1130     1127 1
    6073     3538     3541 1
    6074     4717     4718 1
    6075     6091     6092 1
    6076     1030     1032 1
    6077     8329     8330 1
    6078     9760     9761 1
    6079     2230     2231 1
    6080     3653     3654 1
    6081     7213     7214 1
    6082     4848     4849 1
    6083     2616     2617 1
    6084      159      160 1
    6085     3928     3929 1
    6086     3622     3623 1
    6087     3680     3681 1
    6088     1193     1194 1
    6089     5574     5575 1
    6090     1030     1033 1
    6091     1426     1428 1
    6092     9445     9447 1
    6093     4169     4166 1
    6094     6897     6900 1
    6095     8686     8688 1
    6096     7522     7525 1
    6097     8963     8966 1
    6098     8089     8091 1
    6099     5245     5248 1
    6100     4366     4369 1
    6101     6922     6925 1
    6102     7303     7305 1
    6103     4514     4516 1
    6104      390      387 1
    6105     4483     4485 1
    6106     7807     7809 1
    6107     8751     8753 1
    6108     3091     3093 1
    6109     8071     8074 1
    6110     5018     5021 1
    6111     4777     4780 1
    6112     4009     4012 1
    6113      930      932 1
    6114     1164     1167 1
    6115     5940     5937 1
    6116     1153     1154 1
    6117     5030     5032 1
    6118     5940     5942 1
    6119     6765     6767 1
    6120     6734     6736 1
    6121     2178     2180 1
    6122     1112     1114 1
    6123     8942     8945 1
    6124     1795     1797 1
    6125     4934     4936 1
    6126      260      262 1
    6127     2647     2649 1
    6128     3641     3644 1
    6129     4202     4205 1
    6130     1279     1280 1
    6131     1668     1671 1
    6132        5        2 1
    6133     2278     2281 1
    6134     4070     4072 1
    6135     2541     2542 1
    6136     3286     3289 1
    6137     7927     7930 1
    6138     2628     2629 1
    6139     2846     2847 1
    6140     8763     8764 1
    6141     4082     4083 1
    6142     5094     5095 1
    6143     1501     1504 1
    6144     3002     3005 1
    6145     5635     5636 1
    6146     9345     9346 1
    6147     5604     5605 1
    6148     9148     9149 1
    6149     2795     2796 1
    6150     9010     9011 1
    6151     5682     5683 1
    6152     7870     7871 1
    6153     9501     9502 1
    6154     6157     6160 1
    6155     6339     6342 1
    6156     9916     9919 1
    6157     8461     8464 1
    6158      477      480 1
    6159     8813     8815 1
    6160     6268     6272 1
    6161     2940     2943 1
    6162     4332     4335 1
    6163     5079     5082 1
    6164     5390     5391 1
    6165     7255     7258 1
    6166     4564     4566 1
    6167     3141     3143 1
    6168     6777     6779 1
    6169     6746     6748 1
    6170     7243     7244 1
    6171     7747     7748 1
    6172     7015     7018 1
    6173     7306     7309 1
    6174     4711     4717 1
    6175     2010     2005 1
    6176     7429     7431 1
    6177     5215     5217 1
    6178     2882     2884 1
    6179     4909     4911 1
    6180      804      806 1
    6181     5656     5658 1
    6182     7183     7186 1
    6183     7687     7690 1
    6184     3819     3822 1
    6185      535      537 1
    6186     9769     9772 1
    6187     9086     9088 1
    6188      220      223 1
    6189     8254     8257 1
    6190     5070     5072 1
    6191     6699     6705 1
    6192     6807     6809 1
    6193     1976     1978 1
    6194     6826     6817 1
    6195     2671     2672 1
    6196     9513     9516 1
    6197     9183     9184 1
    6198     7534     7531 1
    6199     8892     8889 1
    6200      888      890 1
    6201     2106     2108 1
    6202     5777     5779 1
    6203     4042     4044 1
    6204     9016     9017 1
    6205     5129     5130 1
    6206      674      675 1
    6207      375      378 1
    6208     9028     9029 1
    6209     5484     5485 1
    6210     9792     9795 1
    6211     8317     8318 1
    6212     3097     3098 1
    6213     7309     7310 1
    6214     9780     9781 1
    6215     9207     9208 1
    6216      849      850 1
    6217     1671     1672 1
    6218     5592     5593 1
    6219     6610     6613 1
    6220     6131     6137 1
    6221      619      622 1
    6222     5064     5067 1
    6223     3350     3352 1
    6224     4360     4362 1
    6225     7957     7959 1
    6226     2906     2908 1
    6227     3152     3159 1
    6228     7261     7262 1
    6229     8804     8805 1
    6230     7765     7766 1
    6231     7978     7980 1
    6232     9036     9038 1
    6233     1767     1769 1
    6234      656      659 1
    6235     3409     3418 1
    6236      498      499 1
    6237      332      334 1
    6238     7474     7476 1
    6239      529      530 1
    6240     4955     4958 1
    6241     5322     5320 1
    6242     3996     3999 1
    6243     4810     4812 1
    6244     7549     7551 1
    6245     5816     5818 1
    6246      217      219 1
    6247     6713     6715 1
    6248     7558     7560 1
    6249     6804     6805 1
    6250     6218     6220 1
    6251     6187     6189 1
    6252     2857     2859 1
    6253     6462     6464 1
    6254     4280     4282 1
    6255     7030     7027 1
    6256     8002     8003 1
    6257     2992     2983 1
    6258     1175     1178 1
    6259     6822     6817 1
    6260      834      836 1
    6261     1456     1457 1
    6262     6372     6373 1
    6263     4033     4034 1
    6264      223      224 1
    6265     4128     4129 1
    6266     8830     8831 1
    6267     6357     6358 1
    6268     6082     6083 1
    6269     6326     6327 1
    6270     3589     3590 1
    6271     7240     7237 1
    6272     6719     6722 1
    6273     1014     1017 1
    6274     1819     1820 1
    6275     7210     7211 1
    6276     7714     7715 1
    6277     2723     2725 1
    6278     6653     6655 1
    6279     8221     8223 1
    6280     4143     4144 1
    6281     6453     6456 1
    6282     6694     6697 1
    6283      610      613 1
    6284     1807     1810 1
    6285     8206     8209 1
    6286      588      589 1
    6287     9386     9387 1
    6288     3986     3989 1
    6289     4714     4721 1
    6290     6910     6911 1
    6291     7420     7421 1
    6292     1564     1565 1
    6293     3010     3012 1
    6294     3199     3201 1
    6295     5206     5207 1
    6296     4018     4020 1
    6297     9248     9250 1
    6298       75       77 1
    6299     3317     3318 1
    6300     5966     5969 1
    6301     7857     7860 1
    6302     8361     8364 1
    6303      115      118 1
    6304     7426     7429 1
    6305     9422     9419 1
    6306     3268     3271 1
    6307     4601     4603 1
    6308      362      364 1
    6309     4964     4967 1
    6310     8458     8460 1
    6311     2937     2940 1
    6312     4329     4332 1
    6313      976      978 1
    6314     1266     1269 1
    6315     4737     4740 1
    6316     1610     1613 1
    6317      278      281 1
    6318     9130     9133 1
    6319     3792     3795 1
    6320     2369     2372 1
    6321     6181     6183 1
    6322      599      658 1
    6323     2576     2578 1
    6324     6212     6214 1
    6325     8278     8275 1
    6326     8848     8851 1
    6327     3208     3211 1
    6328     5992     5994 1
    6329       51       53 1
    6330     6562     6560 1
    6331     3698     3693 1
    6332      735      731 1
    6333     5555     5560 1
    6334     3085     3088 1
    6335     3773     3774 1
    6336     2375     2376 1
    6337     9642     9643 1
    6338     3804     3805 1
    6339     9851     9852 1
    6340     1897     1899 1
    6341     6453     6455 1
    6342     1729     1731 1
    6343     6662     6663 1
    6344     2344     2345 1
    6345     6728     6730 1
    6346     5175     5178 1
    6347     7924     7927 1
    6348     8428     8431 1
    6349     4091     4094 1
    6350     9516     9517 1
    6351     8389     8390 1
    6352     7885     7886 1
    6353     7030     7033 1
    6354     1266     1263 1
    6355     2193     2195 1
    6356     6546     6548 1
    6357     6505     6507 1
    6358     7537     7538 1
    6359     8895     8896 1
    6360     7055     7057 1
    6361      773      770 1
    6362     6369     6372 1
    6363     4030     4033 1
    6364       48       50 1
    6365     7246     7249 1
    6366     3297     3356 1
    6367     5539     5548 1
    6368     4616     4619 1
    6369     6045     6048 1
    6370     6351     6354 1
    6371     3224     3227 1
    6372     2314     2317 1
    6373     3393     3396 1
    6374     1979     1976 1
    6375     4592     4594 1
    6376     6387     6389 1
    6377     2894     2896 1
    6378     9069     9071 1
    6379      384      386 1
    6380     1831     1833 1
    6381     6852     6854 1
    6382     8230     8232 1
    6383     4317     4319 1
    6384     6116     6118 1
    6385     7405     7408 1
    6386     9176     9177 1
    6387     1045     1046 1
    6388     9176     9180 1
    6389     4245     4246 1
    6390     1448     1449 1
    6391     2187     2188 1
    6392     4015     4018 1
    6393     1483     1484 1
    6394       69       70 1
    6395     4132     4133 1
    6396     6323     6326 1
    6397     3505     3506 1
    6398     3474     3475 1
    6399      949      950 1
    6400     6676     6675 1
    6401     1706     1707 1
    6402      294      295 1
    6403     5855     5858 1
    6404     9719     9721 1
    6405     5317     5318 1
    6406     1885     1887 1
    6407     4822     4824 1
    6408      652      654 1
    6409     3912     3914 1
    6410     3943     3945 1
    6411     7159     7161 1
    6412     9883     9886 1
    6413     4218     4220 1
    6414     2300     2302 1
    6415     2282     2273 1
    6416     9283     9286 1
    6417     4703     4704 1
    6418      338      339 1
    6419     6916     6917 1
    6420     3477     3478 1
    6421     2085     2086 1
    6422      423      424 1
    6423     6006     6007 1
    6424     1819     1822 1
    6425      970      973 1
    6426     9266     9269 1
    6427     2033     2035 1
    6428     3456     3458 1
    6429     5764     5766 1
    6430     7564     7566 1
    6431     6529     6531 1
    6432     9872     9875 1
    6433     1597     1590 1
    6434     2699     2712 1
    6435      831      832 1
    6436     4384     4386 1
    6437     2996     2999 1
    6438     2837     2840 1
    6439     5342     5344 1
    6440     8948     8951 1
    6441     6810     6813 1
    6442     6418     6420 1
    6443     4305     4308 1
    6444     7300     7297 1
    6445     2347     2349 1
    6446     5187     5188 1
    6447     4583     4584 1
    6448     3160     3161 1
    6449      958      959 1
    6450     4998     4999 1
    6451     5390     5392 1
    6452     8857     8859 1
    6453     9498     9499 1
    6454     1015     1019 1
    6455     9189     9192 1
    6456      239      240 1
    6457     8780     8781 1
    6458       25       21 1
    6459     1417     1414 1
    6460     1646     1649 1
    6461      423      420 1
    6462     8329     8331 1
    6463     9760     9762 1
    6464     2230     2232 1
    6465     1979     1980 1
    6466     9157     9158 1
    6467     3653     3655 1
    6468     4848     4850 1
    6469     7000     7001 1
    6470      159      161 1
    6471     3873     3874 1
    6472     1157     1161 1
    6473     9457     9459 1
    6474     3399     3401 1
    6475     6123     6125 1
    6476     1100     1101 1
    6477     1958     1959 1
    6478     6429     6430 1
    6479     7276     7278 1
    6480     5354     5356 1
    6481     1595     1598 1
    6482     9919     9920 1
    6483     5323     5325 1
    6484     8605     8607 1
    6485     9869     9871 1
    6486     2831     2833 1
    6487      480      481 1
    6488     6249     6250 1
    6489     2293     2297 1
    6490     4274     4261 1
    6491     6148     6151 1
    6492     7435     7437 1
    6493     8308     8309 1
    6494     2453     2454 1
    6495     8101     8104 1
    6496     6894     6896 1
    6497     3363     3365 1
    6498     1230     1231 1
    6499     4254     4257 1
    6500     9489     9491 1
    6501     7912     7914 1
    6502     9057     9060 1
    6503     2924     2927 1
    6504     8798     8801 1
    6505     7591     7594 1
    6506     8095     8098 1
    6507     6142     6145 1
    6508     1414     1416 1
    6509     8698     8701 1
    6510     1900     1903 1
    6511     3369     3370 1
    6512     2147     2148 1
    6513      967      968 1
    6514     5783     5784 1
    6515     7441     7442 1
    6516     3570     3571 1
    6517     2502     2503 1
    6518     9016     9018 1
    6519     1078     1079 1
    6520     1752     1753 1
    6521      251      253 1
    6522     4390     4392 1
    6523     9133     9136 1
    6524      637      640 1
    6525     2967     2969 1
    6526     9876     9877 1
    6527      599      596 1
    6528     4088     4089 1
    6529     4057     4058 1
    6530     9051     9054 1
    6531     9395     9398 1
    6532     7846     7848 1
    6533     2462     2465 1
    6534     3027     3030 1
    6535      320      321 1
    6536     6592     6593 1
    6537     7342     7344 1
    6538     3885     3888 1
    6539     5622     5624 1
    6540     4743     4745 1
    6541     2121     2122 1
    6542      474      477 1
    6543     6946     6948 1
    6544     2115     2117 1
    6545     4167     4166 1
    6546     6873     6874 1
    6547     9413     9416 1
    6548     9722     9725 1
    6549     9504     9507 1
    6550     4119     4124 1
    6551     8272     8273 1
    6552      782      783 1
    6553      451      447 1
    6554     4348     4351 1
    6555     3390     3392 1
    6556     7966     7968 1
    6557     5438     5440 1
    6558     6108     6110 1
    6559     4888     4890 1
    6560     9901     9904 1
    6561     5390     5393 1
    6562     3686     3689 1
    6563     2263     2266 1
    6564      915      917 1
    6565     4900     4902 1
    6566     8392     8393 1
    6567     8326     8329 1
    6568     7384     7385 1
    6569      347      350 1
    6570     3024     3025 1
    6571     4257     4258 1
    6572      170      177 1
    6573     3436     3443 1
    6574     6196     6137 1
    6575     4175     4177 1
    6576     1311     1314 1
    6577     2202     2204 1
    6578     6844     6846 1
    6579     3656     3658 1
    6580      880      882 1
    6581     8839     8841 1
    6582     2424     2426 1
    6583     5181     5183 1
    6584     6676     6678 1
    6585     4357     4360 1
    6586     8434     8436 1
    6587     4051     4054 1
    6588     6407     6409 1
    6589     5456     5458 1
    6590      613      616 1
    6591      698      701 1
    6592      933      936 1
    6593     8566     8568 1
    6594     2486     2488 1
    6595     1882     1884 1
    6596     8680     8682 1
    6597     3706     3708 1
    6598     6496     6499 1
    6599      652      655 1
    6600     4613     4610 1
    6601     7585     7587 1
    6602     5502     5505 1
    6603     9113     9114 1
    6604     6287     6290 1
    6605     5650     5651 1
    6606     5619     5620 1
    6607     2303     2304 1
    6608     1888     1889 1
    6609     2013     2015 1
    6610      730      733 1
    6611      547      549 1
    6612     8910     8912 1
    6613     6737     6739 1
    6614     7582     7584 1
    6615     8485     8428 1
    6616     8945     8948 1
    6617     1405     1406 1
    6618      791      792 1
    6619     5610     5613 1
    6620      674      676 1
    6621     5129     5131 1
    6622     5378     5379 1
    6623     9363     9364 1
    6624      175      176 1
    6625     6542     6543 1
    6626     3163     3164 1
    6627     4586     4587 1
    6628     5001     5002 1
    6629     7261     7263 1
    6630     8804     8806 1
    6631     7765     7767 1
    6632     1307     1306 1
    6633     5906     5909 1
    6634     5033     5034 1
    6635     2700     2703 1
    6636     6474     6475 1
    6637     4842     4843 1
    6638     3263     3264 1
    6639       15       14 1
    6640     6329     6330 1
    6641     3402     3403 1
    6642      109      110 1
    6643      578      580 1
    6644     9026     9027 1
    6645     8678     8679 1
    6646     1498     1499 1
    6647     8833     8834 1
    6648     2692     2693 1
    6649     6410     6411 1
    6650     8437     8438 1
    6651     3698     3699 1
    6652     4580     4581 1
    6653     2498     2501 1
    6654     2712     2714 1
    6655     6986     6988 1
    6656     7366     7367 1
    6657     8374     8375 1
    6658      220      217 1
    6659     2109     2111 1
    6660     3532     3534 1
    6661     7009     7012 1
    6662     9783     9786 1
    6663     1677     1680 1
    6664     8032     8033 1
    6665     2190     2193 1
    6666     2221     2224 1
    6667     3613     3616 1
    6668     1946     1948 1
    6669     8713     8715 1
    6670     6964     6966 1
    6671     9189     9191 1
    6672     1915     1917 1
    6673     3276     3267 1
    6674      443      445 1
    6675     1465     1466 1
    6676      130      131 1
    6677     2468     2471 1
    6678     6749     6752 1
    6679     8302     8304 1
    6680     4692     4694 1
    6681     5109     5111 1
    6682     8742     8744 1
    6683     9145     9148 1
    6684     9069     9070 1
    6685     9019     9022 1
    6686     5103     5106 1
    6687     8736     8739 1
    6688     8986     8987 1
    6689     8338     8340 1
    6690     3937     3939 1
    6691     6795     6797 1
    6692     5819     5822 1
    6693     5402     5405 1
    6694      677      680 1
    6695     5641     5644 1
    6696     9910     9911 1
    6697     4572     4575 1
    6698     5839     5844 1
    6699     9689     9692 1
    6700     1795     1798 1
    6701     9030     9031 1
    6702     4919     4920 1
    6703     4094     4095 1
    6704       66       67 1
    6705     6699     6700 1
    6706     8626     8629 1
    6707     8819     8820 1
    6708     8122     8125 1
    6709     1323     1324 1
    6710      982      984 1
    6711     9748     9745 1
    6712      822      819 1
    6713     7663     7605 1
    6714     7897     7899 1
    6715     7393     7395 1
    6716     8401     8403 1
    6717     3296     3294 1
    6718     7552     7553 1
    6719     1686     1687 1
    6720     2030     2032 1
    6721     8533     8534 1
    6722     8992     8994 1
    6723     8998     8999 1
    6724     3227     3230 1
    6725     7198     7199 1
    6726     8206     8207 1
    6727     1807     1808 1
    6728     4619     4622 1
    6729     3556     3557 1
    6730     2550     2551 1
    6731      659      660 1
    6732     4891     4892 1
    6733     2729     2730 1
    6734     4922     4923 1
    6735     5713     5714 1
    6736     2428     2430 1
    6737     3381     3383 1
    6738     4178     4181 1
    6739     4209     4212 1
    6740     3851     3853 1
    6741      396      398 1
    6742     6441     6443 1
    6743     9357     9359 1
    6744     7627     7624 1
    6745     7888     7891 1
    6746     7879     7882 1
    6747     6946     6949 1
    6748     8464     8467 1
    6749     1656     1653 1
    6750     1625     1622 1
    6751     7091     7088 1
    6752     3239     3240 1
    6753     3859     3860 1
    6754     7030     7031 1
    6755     6147     6145 1
    6756     8100     8098 1
    6757     9551     9552 1
    6758      656      657 1
    6759     4990     4991 1
    6760     5375     5377 1
    6761     2544     2546 1
    6762     1909     1911 1
    6763     1550     1553 1
    6764     4073     4076 1
    6765     5233     5236 1
    6766     6937     6940 1
    6767     7951     7954 1
    6768      526      528 1
    6769     5647     5644 1
    6770     5616     5613 1
    6771     6493     6495 1
    6772      162      165 1
    6773     8960     8962 1
    6774     5583     5585 1
    6775     5656     5659 1
    6776     5978     5979 1
    6777     4752     4753 1
    6778     7351     7352 1
    6779      862      863 1
    6780     7855     7856 1
    6781     8308     8310 1
    6782     2453     2455 1
    6783     1230     1232 1
    6784     5768     5771 1
    6785     9310     9312 1
    6786      724      726 1
    6787     2601     2603 1
    6788     4024     4026 1
    6789     3405     3407 1
    6790     8836     8838 1
    6791     5526     5528 1
    6792     1501     1503 1
    6793     3547     3549 1
    6794     3844     3846 1
    6795     7717     7719 1
    6796     1338     1339 1
    6797     7519     7520 1
    6798     1019     1020 1
    6799     1284     1285 1
    6800     8023     8024 1
    6801     1776     1779 1
    6802     8863     8864 1
    6803     3993     3990 1
    6804     4696     4697 1
    6805     1967     1968 1
    6806     3157     3158 1
    6807      680      681 1
    6808     6438     6439 1
    6809     8074     8075 1
    6810     7570     7571 1
    6811     5268     5255 1
    6812        6        1 1
    6813     2837     2838 1
    6814     4450     4451 1
    6815     4416     4419 1
    6816     4430     4433 1
    6817     1576     1579 1
    6818      109      106 1
    6819     6400     6402 1
    6820     4360     4363 1
    6821     3178     3180 1
    6822     2384     2386 1
    6823     3807     3809 1
    6824     2353     2355 1
    6825     3876     3879 1
    6826     7123     7126 1
    6827     7957     7960 1
    6828     2906     2909 1
    6829     4057     4060 1
    6830     6752     6755 1
    6831     5496     5498 1
    6832     9689     9691 1
    6833     8748     8749 1
    6834     1860     1862 1
    6835     3795     3798 1
    6836     5344     5285 1
    6837     9128     9126 1
    6838     6813     6816 1
    6839      773      776 1
    6840     4707     4711 1
    6841     2924     2921 1
    6842     7639     7640 1
    6843      559      560 1
    6844      707      708 1
    6845     4242     4243 1
    6846     2819     2820 1
    6847     8780     8782 1
    6848      298      299 1
    6849     8272     8274 1
    6850     2147     2152 1
    6851      782      784 1
    6852     2405     2408 1
    6853     6632     6635 1
    6854     4928     4931 1
    6855     2873     2876 1
    6856     1979     1981 1
    6857     9157     9159 1
    6858     7000     7002 1
    6859     1440     1442 1
    6860     3640     3638 1
    6861      230      232 1
    6862      745      743 1
    6863     9278     9276 1
    6864     8140     8141 1
    6865     7861     7862 1
    6866     1088     1090 1
    6867     9066     9068 1
    6868      266      267 1
    6869     3172     3173 1
    6870     1075     1077 1
    6871     9922     9919 1
    6872     6804     6807 1
    6873     4740     4743 1
    6874     9786     9787 1
    6875     5100     5103 1
    6876     8733     8736 1
    6877      770      771 1
    6878     1891     1893 1
    6879      301      303 1
    6880     1683     1686 1
    6881     6175     6172 1
    6882     2921     2923 1
    6883     9798     9799 1
    6884     2846     2849 1
    6885     6227     6228 1
    6886     8599     8600 1
    6887     5348     5349 1
    6888     2541     2544 1
    6889     8786     8788 1
    6890     1538     1535 1
    6891     8587     8590 1
    6892     3409     3414 1
    6893     5719     5721 1
    6894     3825     3827 1
    6895     7693     7695 1
    6896     1523     1525 1
    6897     9872     9874 1
    6898      738      739 1
    6899     9519     9520 1
    6900     7189     7191 1
    6901     4430     4432 1
    6902     6055     6058 1
    6903     8050     8051 1
    6904     4807     4808 1
    6905     7546     7547 1
    6906     6928     6929 1
    6907     1877     1878 1
    6908     5224     5225 1
    6909     7438     7439 1
    6910      454      455 1
    6911     1254     1256 1
    6912     8209     8211 1
    6913     1810     1812 1
    6914     6641     6643 1
    6915     6610     6612 1
    6916     3166     3169 1
    6917     7438     7441 1
    6918     2242     2244 1
    6919     3634     3636 1
    6920     3665     3667 1
    6921      350      353 1
    6922     4441     4444 1
    6923     1298     1301 1
    6924      167      173 1
    6925      461      454 1
    6926      178      181 1
    6927      263      266 1
    6928     2100     2103 1
    6929     3169     3172 1
    6930     9360     9361 1
    6931     6120     6107 1
    6932     6710     6707 1
    6933      720      723 1
    6934     7006     7007 1
    6935     5749     5751 1
    6936     9836     9837 1
    6937     2970     2971 1
    6938      121      122 1
    6939     9263     9264 1
    6940     9322     9325 1
    6941     4224     4225 1
    6942     4193     4194 1
    6943      749      746 1
    6944     9095     9098 1
    6945     2934     2935 1
    6946     2903     2904 1
    6947     4326     4327 1
    6948     7270     7271 1
    6949     9595     9596 1
    6950     3024     3026 1
    6951     2136     2139 1
    6952     4257     4259 1
    6953     7141     7142 1
    6954      156      157 1
    6955     5114     5115 1
    6956     7396     7399 1
    6957     8404     8407 1
    6958     4001     4002 1
    6959     5256     5259 1
    6960     1813     1814 1
    6961     1164     1165 1
    6962     9051     9052 1
    6963     8172     8175 1
    6964     3570     3573 1
    6965     1529     1530 1
    6966     9557     9560 1
    6967     6126     6129 1
    6968     9698     9699 1
    6969     5583     5580 1
    6970     1885     1888 1
    6971     4218     4221 1
    6972     4822     4825 1
    6973     9301     9304 1
    6974     3912     3915 1
    6975     3943     3946 1
    6976     2300     2303 1
    6977     1770     1772 1
    6978     7249     7250 1
    6979     7513     7516 1
    6980     8521     8524 1
    6981     1097     1099 1
    6982     1344     1345 1
    6983     6484     6486 1
    6984     2842     2844 1
    6985     4749     4751 1
    6986     6381     6382 1
    6987     5861     5864 1
    6988     7195     7198 1
    6989      127      124 1
    6990     8203     8206 1
    6991     5824     5825 1
    6992     1169     1170 1
    6993     6308     6309 1
    6994     7073     7076 1
    6995     8119     8120 1
    6996     7477     7420 1
    6997     5006     5008 1
    6998     9560     9562 1
    6999     4338     4341 1
    7000     4009     4011 1
    7001     2292     2296 1
    7002     9722     9724 1
    7003     6743     6745 1
    7004     7588     7590 1
    7005     4561     4563 1
    7006      428      427 1
    7007     2532     2535 1
    7008     3955     3958 1
    7009     3212     3215 1
    7010      631      632 1
    7011     4354     4356 1
    7012     8860     8862 1
    7013      353      355 1
    7014     9063     9065 1
    7015     3720     3722 1
    7016     8251     8254 1
    7017     1601     1602 1
    7018     7036     7037 1
    7019     9766     9767 1
    7020     7735     7736 1
    7021     7231     7232 1
    7022     5589     5590 1
    7023     1871     1872 1
    7024     9226     9227 1
    7025      588      591 1
    7026      275      272 1
    7027     8419     8421 1
    7028     7915     7917 1
    7029       57       59 1
    7030     5514     5516 1
    7031     9439     9441 1
    7032     7411     7413 1
    7033     5413     5415 1
    7034     8266     8268 1
    7035     7762     7764 1
    7036     1879     1881 1
    7037     9466     9467 1
    7038     4937     4938 1
    7039      921      922 1
    7040     4906     4907 1
    7041     9280     9276 1
    7042     7435     7438 1
    7043      381      382 1
    7044     3251     3252 1
    7045     4039     4040 1
    7046     4949     4950 1
    7047     4674     4675 1
    7048     3178     3181 1
    7049     5836     5838 1
    7050     1161     1163 1
    7051     9863     9865 1
    7052     2393     2395 1
    7053      985      987 1
    7054     7843     7845 1
    7055     7339     7341 1
    7056     5311     5313 1
    7057     8593     8595 1
    7058      622      624 1
    7059     5067     5069 1
    7060      746      747 1
    7061     4653     4656 1
    7062     6891     6894 1
    7063     2091     2094 1
    7064     2060     2063 1
    7065     1847     1860 1
    7066     3514     3517 1
    7067     6758     6761 1
    7068       22       20 1
    7069     7552     7554 1
    7070     1686     1688 1
    7071     7630     7631 1
    7072     5780     5782 1
    7073     4427     4429 1
    7074     2885     2886 1
    7075     8748     8750 1
    7076     7507     7510 1
    7077      100      102 1
    7078     5813     5815 1
    7079      214      216 1
    7080     2860     2862 1
    7081     8904     8906 1
    7082     8281     8284 1
    7083     6826     6829 1
    7084     5484     5486 1
    7085     9586     9589 1
    7086     7030     7032 1
    7087     9551     9553 1
    7088     9678     9679 1
    7089      716      717 1
    7090     6783     6784 1
    7091     1732     1733 1
    7092     7290     7292 1
    7093     7794     7796 1
    7094     3468     3470 1
    7095     4103     4105 1
    7096      329      331 1
    7097     5807     5809 1
    7098     2680     2682 1
    7099     1138     1141 1
    7100     9672     9675 1
    7101      162      163 1
    7102     2477     2478 1
    7103     5879     5880 1
    7104     6830     6831 1
    7105     3978     3979 1
    7106     6273     6274 1
    7107     4462     4463 1
    7108     1408     1410 1
    7109     7076     7077 1
    7110     6197     6198 1
    7111     6311     6314 1
    7112     2613     2615 1
    7113     6215     6216 1
    7114     6490     6491 1
    7115     4632     4633 1
    7116     2854     2855 1
    7117     4277     4278 1
    7118     5978     5980 1
    7119     4752     4754 1
    7120     9280     9282 1
    7121      862      864 1
    7122     3644     3647 1
    7123     7675     7678 1
    7124      976      979 1
    7125     4266     4267 1
    7126     4683     4684 1
    7127     1338     1340 1
    7128      269      270 1
    7129     3260     3261 1
    7130     8886     8887 1
    7131     5438     5435 1
    7132     1863     1860 1
    7133     5499     5496 1
    7134     9798     9800 1
    7135     5836     5839 1
    7136     5154     5155 1
    7137     5789     5790 1
    7138     5758     5759 1
    7139     5569     5570 1
    7140      979      980 1
    7141     2573     2578 1
    7142     5091     5092 1
    7143     7729     7672 1
    7144     1955     1958 1
    7145     7570     7572 1
    7146     8074     8076 1
    7147     1616     1619 1
    7148     7138     7140 1
    7149     8170     8171 1
    7150     8674     8675 1
    7151      532      533 1
    7152     9316     9318 1
    7153     7894     7891 1
    7154     1538     1541 1
    7155     7360     7362 1
    7156     9704     9706 1
    7157     7279     7282 1
    7158     7789     7731 1
    7159     8368     8370 1
    7160     7474     7416 1
    7161     7064     7067 1
    7162     4867     4869 1
    7163     4598     4600 1
    7164     3007     3009 1
    7165     7216     7218 1
    7166     8176     8178 1
    7167      136      138 1
    7168     7720     7722 1
    7169     5432     5434 1
    7170      399      401 1
    7171     4408     4411 1
    7172     5416     5419 1
    7173     9454     9455 1
    7174     2952     2953 1
    7175     9245     9246 1
    7176     4375     4376 1
    7177      936      939 1
    7178     3492     3495 1
    7179     9526     9528 1
    7180     1372     1374 1
    7181     9257     9260 1
    7182     9586     9587 1
    7183     2402     2404 1
    7184     9042     9044 1
    7185     8197     8199 1
    7186      593      595 1
    7187     1804     1806 1
    7188     6822     6824 1
    7189     4529     4532 1
    7190     7663     7664 1
    7191     8876     8877 1
    7192     8032     8035 1
    7193     8281     8283 1
    7194     5857     5850 1
    7195     7061     7062 1
    7196     6239     6241 1
    7197     7828     7830 1
    7198     2508     2510 1
    7199     7147     7149 1
    7200     3900     3902 1
    7201      866      868 1
    7202     4972     4974 1
    7203     4027     4029 1
    7204     8772     8774 1
    7205     4725     4727 1
    7206     6523     6525 1
    7207     8062     8064 1
    7208     5919     5921 1
    7209     5888     5890 1
    7210     7315     7318 1
    7211     4526     4529 1
    7212     9563     9565 1
    7213     4792     4795 1
    7214     8503     8506 1
    7215     2734     2737 1
    7216       66       63 1
    7217     4572     4574 1
    7218     7015     7017 1
    7219     3967     3969 1
    7220     4792     4794 1
    7221     9745     9747 1
    7222     3731     3734 1
    7223     2734     2736 1
    7224     5777     5780 1
    7225     4042     4045 1
    7226      849      852 1
    7227     5752     5755 1
    7228     1039     1040 1
    7229      254      257 1
    7230     2628     2625 1
    7231     8810     8813 1
    7232     9742     9744 1
    7233     1471     1468 1
    7234      495      492 1
    7235     2789     2792 1
    7236     1745     1743 1
    7237     9372     9373 1
    7238     4783     4784 1
    7239     3372     3374 1
    7240       10       13 1
    7241      866      869 1
    7242     8689     8690 1
    7243      245      246 1
    7244     1544     1545 1
    7245     8128     8129 1
    7246     7624     7625 1
    7247      344      346 1
    7248     5737     5739 1
    7249     7273     7276 1
    7250     1303     1304 1
    7251     6616     6619 1
    7252     4995     4997 1
    7253     8005     8008 1
    7254     8509     8512 1
    7255     7501     7504 1
    7256     5209     5212 1
    7257     9545     9546 1
    7258     5045     5046 1
    7259     1137     1138 1
    7260     3625     3627 1
    7261     4807     4809 1
    7262     7546     7548 1
    7263     8050     8052 1
    7264     7027     7028 1
    7265     1718     1719 1
    7266     7058     7059 1
    7267     5810     5811 1
    7268     4829     4830 1
    7269     6284     6285 1
    7270     6268     6271 1
    7271     2402     2405 1
    7272     2428     2431 1
    7273      396      399 1
    7274     3381     3384 1
    7275     7408     7409 1
    7276     2453     2456 1
    7277     3057     3060 1
    7278     7579     7582 1
    7279     9357     9360 1
    7280     6441     6444 1
    7281     3462     3459 1
    7282     2039     2036 1
    7283     7636     7639 1
    7284     5629     5632 1
    7285     3552     3551 1
    7286     7006     7008 1
    7287     5172     5169 1
    7288     8613     8615 1
    7289     8109     8111 1
    7290     9816     9818 1
    7291     1100     1103 1
    7292     5036     5037 1
    7293     6262     6263 1
    7294     4558     4559 1
    7295     1940     1941 1
    7296     8707     8708 1
    7297     5659     5661 1
    7298     4565     4569 1
    7299     6360     6363 1
    7300     1529     1532 1
    7301      526      527 1
    7302     5227     5228 1
    7303     3175     3178 1
    7304     2731     2733 1
    7305     3835     3836 1
    7306     7018     7019 1
    7307     7061     7058 1
    7308     3986     3988 1
    7309     1867     1871 1
    7310     5697     5702 1
    7311      526      523 1
    7312      535      532 1
    7313     3755     3758 1
    7314     7357     7358 1
    7315     3836     3838 1
    7316     7108     7111 1
    7317     5925     5928 1
    7318     1613     1616 1
    7319     5015     5018 1
    7320     5526     5529 1
    7321     4644     4645 1
    7322      988      989 1
    7323     9866     9867 1
    7324      825      826 1
    7325     9601     9602 1
    7326     9486     9489 1
    7327      764      765 1
    7328     3740     3743 1
    7329     3731     3732 1
    7330     6070     6071 1
    7331     6949     6950 1
    7332     2640     2642 1
    7333     5952     5953 1
    7334     3263     3266 1
    7335     3997     4001 1
    7336     8623     8626 1
    7337      405      407 1
    7338     5033     5036 1
    7339     9492     9494 1
    7340     7552     7555 1
    7341     7561     7563 1
    7342     1359     1361 1
    7343     7269     7267 1
    7344     3323     3324 1
    7345     7426     7427 1
    7346     7930     7931 1
    7347     7537     7539 1
    7348     8895     8897 1
    7349     4586     4589 1
    7350     6024     6027 1
    7351     6511     6512 1
    7352     8446     8447 1
    7353     6897     6898 1
    7354     5193     5194 1
    7355      167      168 1
    7356     5867     5870 1
    7357     8029     8031 1
    7358     3867     3870 1
    7359     3712     3714 1
    7360     5894     5896 1
    7361     5076     5079 1
    7362     2718     2721 1
    7363     2127     2130 1
    7364     2894     2897 1
    7365      384      387 1
    7366     4592     4595 1
    7367     4317     4320 1
    7368     3344     3347 1
    7369     9033     9035 1
    7370     5227     5230 1
    7371     4239     4241 1
    7372     2816     2818 1
    7373     8086     8088 1
    7374     1979     1982 1
    7375     7000     7003 1
    7376     9157     9160 1
    7377     1338     1341 1
    7378      755      758 1
    7379     7036     7038 1
    7380     1601     1603 1
    7381     9766     9768 1
    7382     7735     7737 1
    7383     5060     5001 1
    7384     5577     5578 1
    7385     6975     6977 1
    7386     1582     1583 1
    7387     2731     2732 1
    7388     3360     3361 1
    7389     7936     7937 1
    7390     7432     7433 1
    7391     6215     6217 1
    7392     6490     6492 1
    7393     2854     2856 1
    7394     4277     4279 1
    7395     3671     3674 1
    7396       69       71 1
    7397     9476     9478 1
    7398     3505     3507 1
    7399     3474     3476 1
    7400      949      951 1
    7401     2082     2084 1
    7402     2674     2676 1
    7403     6913     6915 1
    7404     9004     9006 1
    7405     3870     3873 1
    7406     7117     7120 1
    7407     6699     6701 1
    7408     7097     7098 1
    7409     1631     1632 1
    7410     6249     6254 1
    7411     6680     6681 1
    7412     5552     5553 1
    7413     7801     7802 1
    7414     8676     8677 1
    7415     5900     5901 1
    7416     8368     8365 1
    7417     6774     6776 1
    7418     4628     4631 1
    7419     5251     5254 1
    7420     6955     6958 1
    7421     6789     6790 1
    7422     6758     6759 1
    7423     9219     9220 1
    7424     1686     1689 1
    7425     4971     4972 1
    7426     4876     4878 1
    7427       54       56 1
    7428     9289     9292 1
    7429     1474     1476 1
    7430     2576     2580 1
    7431     3619     3622 1
    7432     3650     3653 1
    7433     2227     2230 1
    7434     7219     7222 1
    7435     6659     6662 1
    7436     9639     9642 1
    7437     3801     3804 1
    7438     2378     2381 1
    7439     2363     2360 1
    7440     7414     7415 1
    7441     9654     9655 1
    7442     9498     9500 1
    7443     7810     7811 1
    7444     8754     8755 1
    7445     7306     7307 1
    7446     5997     5999 1
    7447     6391     6404 1
    7448     1882     1885 1
    7449     2761     2764 1
    7450     8107     8050 1
    7451     1607     1610 1
    7452     8842     8844 1
    7453     1579     1581 1
    7454     3668     3665 1
    7455     7933     7935 1
    7456     1150     1152 1
    7457     9683     9684 1
    7458      716      718 1
    7459     1848     1850 1
    7460     5184     5186 1
    7461     5490     5492 1
    7462       16       14 1
    7463     9404     9405 1
    7464     8242     8243 1
    7465     4369     4372 1
    7466     2121     2124 1
    7467     5828     5823 1
    7468      689      686 1
    7469     9913     9915 1
    7470     6024     6025 1
    7471     8227     8228 1
    7472     3836     3837 1
    7473     5256     5258 1
    7474     5314     5316 1
    7475     2282     2284 1
    7476     5949     5951 1
    7477     8596     8598 1
    7478     5345     5347 1
    7479     7720     7721 1
    7480     8581     8584 1
    7481     1897     1900 1
    7482     8386     8389 1
    7483     3505     3508 1
    7484     4714     4717 1
    7485     7945     7947 1
    7486     3338     3340 1
    7487     8449     8451 1
    7488     5970     5972 1
    7489     4825     4828 1
    7490     6112     6115 1
    7491     4486     4489 1
    7492     7783     7785 1
    7493     2016     2017 1
    7494     3628     3629 1
    7495     3659     3660 1
    7496     7067     7068 1
    7497      883      884 1
    7498     2205     2206 1
    7499     3459     3461 1
    7500     6847     6848 1
    7501     9428     9429 1
    7502     4764     4765 1
    7503     4795     4796 1
    7504     7873     7874 1
    7505     7369     7370 1
    7506     4696     4699 1
    7507     3190     3192 1
    7508     3221     3223 1
    7509     7462     7464 1
    7510     9751     9752 1
    7511     8470     8472 1
    7512     5248     5250 1
    7513     3002     3003 1
    7514     1752     1754 1
    7515     4372     4373 1
    7516     1393     1394 1
    7517     1199     1202 1
    7518     6250     6253 1
    7519     3202     3204 1
    7520     3233     3235 1
    7521     8482     8484 1
    7522     4625     4627 1
    7523     9848     9851 1
    7524     1247     1245 1
    7525      933      934 1
    7526     4864     4865 1
    7527     9395     9396 1
    7528     6533     6546 1
    7529      677      678 1
    7530     3906     3907 1
    7531     3441     3444 1
    7532     2514     2515 1
    7533     2483     2484 1
    7534     8822     8823 1
    7535     5132     5133 1
    7536     7153     7154 1
    7537     8341     8343 1
    7538     7333     7335 1
    7539     2704     2706 1
    7540     3121     3123 1
    7541     7837     7839 1
    7542      432      435 1
    7543     4221     4222 1
    7544     4861     4862 1
    7545     3205     3206 1
    7546     6629     6631 1
    7547     7576     7577 1
    7548      375      376 1
    7549     6702     6703 1
    7550     3483     3484 1
    7551     4468     4469 1
    7552     5694     5695 1
    7553     5417     5421 1
    7554      590      585 1
    7555     2369     2370 1
    7556     9586     9588 1
    7557     2338     2339 1
    7558     3792     3793 1
    7559      544      545 1
    7560     9807     9810 1
    7561      436      438 1
    7562     7588     7591 1
    7563      930      931 1
    7564     5832     5835 1
    7565     7657     7660 1
    7566     2659     2660 1
    7567     4051     4052 1
    7568     3862     3863 1
    7569      724      711 1
    7570      338      335 1
    7571      393      394 1
    7572     1643     1644 1
    7573     7495     7496 1
    7574     8503     8504 1
    7575     7061     7063 1
    7576      854      855 1
    7577      665      666 1
    7578     8200     8202 1
    7579     3499     3501 1
    7580     4419     4421 1
    7581     2140     2142 1
    7582     2045     2047 1
    7583     2996     2998 1
    7584      486      489 1
    7585      156      158 1
    7586     5114     5116 1
    7587     4683     4686 1
    7588     4266     4269 1
    7589     7141     7143 1
    7590     4001     4003 1
    7591     2589     2592 1
    7592     6242     6245 1
    7593     5363     5366 1
    7594     8930     8933 1
    7595     3831     3834 1
    7596     9439     9442 1
    7597       57       60 1
    7598     5514     5517 1
    7599     4422     4425 1
    7600     7753     7756 1
    7601     4638     4641 1
    7602     3149     3155 1
    7603     9372     9374 1
    7604     4783     4785 1
    7605      837      840 1
    7606     1375     1376 1
    7607     7597     7594 1
    7608     5700     5702 1
    7609     5955     5958 1
    7610     6876     6879 1
    7611     6817     6818 1
    7612     7666     7667 1
    7613     8464     8465 1
    7614     3184     3185 1
    7615     3786     3789 1
    7616     2332     2335 1
    7617     8164     8167 1
    7618     8668     8671 1
    7619     1288     1290 1
    7620     1668     1670 1
    7621      100      103 1
    7622     1057     1060 1
    7623     4856     4857 1
    7624     6418     6421 1
    7625     5746     5748 1
    7626     5282     5284 1
    7627     5268     5270 1
    7628     3767     3769 1
    7629     3564     3566 1
    7630     6302     6304 1
    7631     6571     6573 1
    7632     4770     4773 1
    7633     5761     5763 1
    7634     2665     2667 1
    7635     2634     2636 1
    7636     5338     5341 1
    7637     5792     5794 1
    7638     9204     9207 1
    7639     9226     9230 1
    7640     8901     8903 1
    7641     1088     1085 1
    7642     8014     8015 1
    7643     2480     2481 1
    7644     8518     8519 1
    7645     9619     9621 1
    7646     6684     6685 1
    7647     4885     4886 1
    7648     7101     7102 1
    7649     2085     2088 1
    7650     3477     3480 1
    7651     6916     6919 1
    7652     9483     9486 1
    7653     8410     8413 1
    7654     7483     7485 1
    7655     7987     7989 1
    7656      585      586 1
    7657     7094     7097 1
    7658     6107     6108 1
    7659     3640     3581 1
    7660      144      143 1
    7661     9733     9734 1
    7662     3595     3596 1
    7663     2587     2588 1
    7664     2172     2173 1
    7665     7954     7957 1
    7666     2807     2808 1
    7667     1758     1760 1
    7668     4980     4982 1
    7669     6456     6459 1
    7670     5850     5852 1
    7671     2248     2250 1
    7672     7108     7110 1
    7673     3149     3151 1
    7674     1613     1615 1
    7675     8763     8766 1
    7676     9236     9239 1
    7677     3541     3544 1
    7678     1866     1870 1
    7679     3499     3502 1
    7680     3199     3202 1
    7681     8074     8077 1
    7682     7570     7573 1
    7683     7950     7948 1
    7684     2369     2371 1
    7685     9916     9917 1
    7686      477      478 1
    7687      779      776 1
    7688     1807     1809 1
    7689     7198     7200 1
    7690     4891     4893 1
    7691     4922     4924 1
    7692     8206     8208 1
    7693     9045     9047 1
    7694     4341     4343 1
    7695     7207     7209 1
    7696     7711     7713 1
    7697     8017     8019 1
    7698     9772     9773 1
    7699     1178     1179 1
    7700     2211     2212 1
    7701     6511     6513 1
    7702     6450     6451 1
    7703      451      452 1
    7704     7600     7542 1
    7705     2434     2438 1
    7706     5539     5544 1
    7707     4845     4846 1
    7708     5842     5845 1
    7709     2873     2874 1
    7710     5360     5361 1
    7711     8107     8108 1
    7712     7693     7696 1
    7713     3825     3828 1
    7714     6154     6155 1
    7715     8611     8612 1
    7716     7189     7192 1
    7717     8730     8731 1
    7718     9392     9394 1
    7719     5097     5098 1
    7720     1732     1734 1
    7721     6783     6785 1
    7722     4493     4494 1
    7723     7067     7070 1
    7724     5332     5335 1
    7725     3628     3631 1
    7726     3088     3091 1
    7727     4480     4483 1
    7728     1903     1906 1
    7729      677      674 1
    7730     1263     1260 1
    7731     9630     9632 1
    7732     6100     6102 1
    7733     6650     6652 1
    7734     9116     9118 1
    7735     6100     6103 1
    7736     5577     5579 1
    7737     1951     1949 1
    7738     8718     8716 1
    7739      786      785 1
    7740     5145     5148 1
    7741     7876     7878 1
    7742     5260     5262 1
    7743     5677     5679 1
    7744     2740     2742 1
    7745     6771     6772 1
    7746     9172     9173 1
    7747     2184     2185 1
    7748     3607     3608 1
    7749     1746     1747 1
    7750     2161     2162 1
    7751     2416     2417 1
    7752     2562     2563 1
    7753     4952     4953 1
    7754     6027     6028 1
    7755     2350     2351 1
    7756     9845     9846 1
    7757     2979     2980 1
    7758     5910     5911 1
    7759     6064     6065 1
    7760     6033     6034 1
    7761     4354     4357 1
    7762     4991     4995 1
    7763     1121     1122 1
    7764     5900     5902 1
    7765     3949     3952 1
    7766     1674     1676 1
    7767     1033     1035 1
    7768     8869     8870 1
    7769     2940     2941 1
    7770     4332     4333 1
    7771     1369     1372 1
    7772     2607     2610 1
    7773     2158     2159 1
    7774     3526     3527 1
    7775     6934     6935 1
    7776     3801     3802 1
    7777     2347     2348 1
    7778     2378     2379 1
    7779      810      807 1
    7780     8533     8536 1
    7781     8044     7987 1
    7782        2        1 1
    7783     5604     5607 1
    7784     5635     5638 1
    7785     9345     9348 1
    7786     4613     4614 1
    7787     5839     5840 1
    7788     2166     2168 1
    7789     7177     7179 1
    7790     2390     2392 1
    7791     3813     3815 1
    7792     9922     9925 1
    7793      310      309 1
    7794      761      764 1
    7795     8497     8498 1
    7796     7489     7490 1
    7797     7993     7994 1
    7798     8287     8289 1
    7799      749      750 1
    7800        4        2 1
    7801     7240     7242 1
    7802     7744     7746 1
    7803     9295     9296 1
    7804     6867     6869 1
    7805     3305     3307 1
    7806     5163     5165 1
    7807     3786     3783 1
    7808     2718     2720 1
    7809     5444     5446 1
    7810     2127     2129 1
    7811     4015     4017 1
    7812     6323     6325 1
    7813     7609     7610 1
    7814     1718     1721 1
    7815     3017     3010 1
    7816     6508     6511 1
    7817     1019     1025 1
    7818     8218     8221 1
    7819     7210     7213 1
    7820     9598     9600 1
    7821     3072     3013 1
    7822     2604     2606 1
    7823     8314     8317 1
    7824     1329     1330 1
    7825     8215     8218 1
    7826     8845     8848 1
    7827     5493     5496 1
    7828     3378     3375 1
    7829     2644     2645 1
    7830     3928     3931 1
    7831     7402     7404 1
    7832     7192     7193 1
    7833     8020     8023 1
    7834     2882     2885 1
    7835     2016     2018 1
    7836     3628     3630 1
    7837     3659     3661 1
    7838     2205     2207 1
    7839     7067     7069 1
    7840     6709     6702 1
    7841     6015     6016 1
    7842     1393     1395 1
    7843     7903     7904 1
    7844     1353     1355 1
    7845      372      374 1
    7846     2266     2267 1
    7847     1422     1423 1
    7848     3689     3690 1
    7849     5429     5430 1
    7850     1662     1663 1
    7851     2456     2457 1
    7852     5151     5152 1
    7853     9022     9023 1
    7854     6960     6963 1
    7855     5175     5176 1
    7856     7924     7925 1
    7857     8428     8429 1
    7858     7975     7977 1
    7859     8479     8481 1
    7860     7471     7473 1
    7861     8801     8804 1
    7862      578      569 1
    7863     2317     2320 1
    7864     2786     2788 1
    7865     6120     6123 1
    7866     1718     1720 1
    7867     7027     7029 1
    7868     7058     7060 1
    7869     8638     8640 1
    7870     8134     8136 1
    7871      272      274 1
    7872     7561     7564 1
    7873       45       46 1
    7874     5978     5965 1
    7875     2144     2147 1
    7876     7576     7578 1
    7877     6746     6749 1
    7878     6777     6780 1
    7879     3354     3356 1
    7880     7605     7607 1
    7881     3532     3535 1
    7882     3702     3703 1
    7883     6465     6466 1
    7884     9536     9537 1
    7885     9633     9636 1
    7886     5671     5672 1
    7887     2860     2861 1
    7888     3680     3682 1
    7889     1193     1195 1
    7890     5574     5576 1
    7891     9669     9672 1
    7892     5450     5453 1
    7893     7459     7462 1
    7894     6830     6817 1
    7895     9354     9357 1
    7896      535      536 1
    7897     1399     1402 1
    7898     8455     8452 1
    7899     4224     4227 1
    7900     2136     2138 1
    7901      662      664 1
    7902     6586     6587 1
    7903     1689     1692 1
    7904     4882     4883 1
    7905     4971     4984 1
    7906      148      143 1
    7907     5619     5622 1
    7908      995      996 1
    7909       69       72 1
    7910     2674     2677 1
    7911     9239     9240 1
    7912     8302     8305 1
    7913     3544     3545 1
    7914     1583     1587 1
    7915     5813     5816 1
    7916     3103     3104 1
    7917     4801     4802 1
    7918     9189     9186 1
    7919     6342     6344 1
    7920     1042     1039 1
    7921     2163     2166 1
    7922      513      510 1
    7923     8676     8678 1
    7924     7648     7651 1
    7925     6432     6433 1
    7926     5795     5796 1
    7927     4366     4367 1
    7928     6073     6075 1
    7929     5001     4995 1
    7930     5824     5826 1
    7931     5855     5857 1
    7932     6308     6310 1
    7933     2424     2415 1
    7934     5682     5684 1
    7935     2795     2797 1
    7936     9010     9012 1
    7937     9148     9150 1
    7938     3798     3799 1
    7939     1737     1740 1
    7940     5816     5817 1
    7941      217      218 1
    7942     4233     4230 1
    7943      668      669 1
    7944     6281     6284 1
    7945     1653     1654 1
    7946     1622     1623 1
    7947     7088     7089 1
    7948     8467     8469 1
    7949     5520     5522 1
    7950     8872     8874 1
    7951     3218     3220 1
    7952     4641     4643 1
    7953     6804     6806 1
    7954     9657     9654 1
    7955     9063     9066 1
    7956      353      356 1
    7957      891      888 1
    7958     6061     6058 1
    7959     6030     6027 1
    7960     8590     8592 1
    7961     5308     5310 1
    7962     3511     3513 1
    7963     1133     1134 1
    7964     8014     8016 1
    7965     9122     9123 1
    7966     2480     2482 1
    7967     8080     8081 1
    7968     8518     8520 1
    7969     4060     4063 1
    7970     7285     7227 1
    7971     3130     3133 1
    7972     8167     8169 1
    7973     8671     8673 1
    7974     2282     2285 1
    7975     1871     1873 1
    7976     5864     5867 1
    7977     8966     8969 1
    7978     5314     5317 1
    7979     9472     9475 1
    7980     3126     3127 1
    7981     6768     6769 1
    7982     4295     4288 1
    7983     9169     9170 1
    7984     3236     3239 1
    7985     2024     2025 1
    7986     3447     3448 1
    7987     7225     7226 1
    7988     9019     9020 1
    7989     4819     4820 1
    7990     9645     9646 1
    7991     1834     1835 1
    7992     5009     5010 1
    7993     6665     6666 1
    7994     8323     8324 1
    7995     5106     5107 1
    7996     8739     8740 1
    7997     1405     1402 1
    7998       38       36 1
    7999     9542     9539 1
    8000     2894     2891 1
    8001     2245     2246 1
    8002     6991     6993 1
    8003     8839     8842 1
    8004     6366     6369 1
    8005     5456     5459 1
    8006     9139     9142 1
    8007     1847     1852 1
    8008     1752     1755 1
    8009     8188     8185 1
    8010     4119     4132 1
    8011      853      862 1
    8012     5027     5024 1
    8013     6960     6962 1
    8014     9907     9909 1
    8015     7731     7733 1
    8016     8235     8237 1
    8017     2366     2369 1
    8018     7507     7509 1
    8019     8011     8013 1
    8020     1634     1635 1
    8021     9736     9739 1
    8022     9163     9166 1
    8023     3598     3601 1
    8024     8386     8387 1
    8025     8497     8499 1
    8026     7489     7491 1
    8027     2668     2671 1
    8028     7993     7995 1
    8029      649      652 1
    8030     1967     1970 1
    8031     6450     6452 1
    8032      451      453 1
    8033     6073     6076 1
    8034     4094     4097 1
    8035     4919     4922 1
    8036     9026     9030 1
    8037     1121     1118 1
    8038     1451     1445 1
    8039     7219     7220 1
    8040     4680     4681 1
    8041     7723     7724 1
    8042     3257     3258 1
    8043     5626     5627 1
    8044     3922     3923 1
    8045     1014     1018 1
    8046     1958     1961 1
    8047     3589     3591 1
    8048     6429     6432 1
    8049     4004     4011 1
    8050     9176     9178 1
    8051     2511     2512 1
    8052     7150     7151 1
    8053     3903     3904 1
    8054     7831     7832 1
    8055      869      870 1
    8056     9348     9349 1
    8057     3934     3935 1
    8058     6552     6556 1
    8059     4728     4729 1
    8060      894      891 1
    8061     4798     4799 1
    8062     4767     4768 1
    8063     2915     2917 1
    8064     2054     2057 1
    8065     4369     4371 1
    8066     1631     1634 1
    8067     2396     2398 1
    8068     5154     5156 1
    8069     5789     5791 1
    8070     3694     3693 1
    8071     5758     5760 1
    8072      979      981 1
    8073     1421     1430 1
    8074     6085     6087 1
    8075     9663     9665 1
    8076     3268     3270 1
    8077     6691     6696 1
    8078     2155     2157 1
    8079     3311     3313 1
    8080     7597     7600 1
    8081      532      534 1
    8082     2150     2154 1
    8083     8608     8609 1
    8084     6236     6237 1
    8085     6139     6140 1
    8086     9633     9634 1
    8087     5885     5886 1
    8088     2752     2754 1
    8089     8557     8559 1
    8090     8053     8055 1
    8091     2274     2275 1
    8092     9769     9770 1
    8093     9554     9556 1
    8094     3208     3210 1
    8095     4662     4664 1
    8096      872      873 1
    8097     3422     3424 1
    8098     3378     3381 1
    8099     5997     5998 1
    8100     7213     7216 1
    8101     2517     2519 1
    8102     7156     7158 1
    8103     2792     2794 1
    8104     4184     4186 1
    8105     3940     3942 1
    8106     3909     3911 1
    8107     4120     4123 1
    8108     1572     1575 1
    8109     4842     4845 1
    8110     5682     5685 1
    8111     6293     6290 1
    8112     7216     7219 1
    8113     4867     4870 1
    8114     7720     7723 1
    8115     3042     3043 1
    8116     2798     2799 1
    8117     9151     9152 1
    8118     1130     1132 1
    8119     9522     9525 1
    8120     7411     7353 1
    8121     7777     7778 1
    8122     7273     7274 1
    8123     5227     5229 1
    8124      118      121 1
    8125      749      751 1
    8126     8359     8360 1
    8127     5474     5476 1
    8128     4045     4047 1
    8129      483      480 1
    8130     2526     2527 1
    8131     7082     7083 1
    8132     8350     8351 1
    8133     1187     1188 1
    8134      604      605 1
    8135      794      791 1
    8136     8137     8140 1
    8137      226      227 1
    8138     1042     1043 1
    8139     9578     9579 1
    8140     1541     1543 1
    8141     7046     7047 1
    8142     4668     4670 1
    8143     3245     3247 1
    8144     4036     4037 1
    8145     4780     4783 1
    8146     7231     7233 1
    8147     2553     2554 1
    8148     1014     1015 1
    8149     3428     3431 1
    8150      940      943 1
    8151       35       28 1
    8152      372      375 1
    8153     1538     1539 1
    8154      955      956 1
    8155     2057     2058 1
    8156     6094     6095 1
    8157     7657     7654 1
    8158      854      856 1
    8159     2416     2419 1
    8160      665      667 1
    8161     1564     1567 1
    8162     9489     9490 1
    8163     7912     7913 1
    8164     8945     8947 1
    8165     1755     1758 1
    8166     8792     8793 1
    8167     4680     4683 1
    8168     3257     3260 1
    8169     2928     2931 1
    8170     6931     6932 1
    8171     6900     6901 1
    8172     4079     4080 1
    8173      359      360 1
    8174     3523     3524 1
    8175     2656     2657 1
    8176     9095     9096 1
    8177     4656     4659 1
    8178      903      900 1
    8179     2396     2393 1
    8180      894      895 1
    8181     5555     5556 1
    8182      190      191 1
    8183     5094     5097 1
    8184     5357     5360 1
    8185     3409     3410 1
    8186     5984     5988 1
    8187     9613     9614 1
    8188     4706     4709 1
    8189     4363     4364 1
    8190     2909     2910 1
    8191     6913     6914 1
    8192     5622     5625 1
    8193      843      840 1
    8194     3970     3972 1
    8195     4891     4894 1
    8196     4922     4925 1
    8197     4341     4344 1
    8198     9683     9686 1
    8199     2069     2071 1
    8200     2625     2627 1
    8201     5274     5276 1
    8202     7726     7728 1
    8203     4850     4845 1
    8204     7909     7912 1
    8205     9319     9321 1
    8206     3702     3693 1
    8207     5864     5865 1
    8208     6194     6196 1
    8209     8966     8967 1
    8210      205      208 1
    8211     7459     7460 1
    8212     5435     5436 1
    8213      281      282 1
    8214     4051     4048 1
    8215      320      317 1
    8216     4703     4708 1
    8217     9622     9624 1
    8218     7534     7537 1
    8219     8892     8895 1
    8220     2699     2700 1
    8221     2424     2425 1
    8222     8839     8840 1
    8223     6762     6763 1
    8224     8434     8435 1
    8225     5181     5182 1
    8226     6676     6677 1
    8227     5456     5457 1
    8228     9630     9633 1
    8229     6407     6408 1
    8230     9222     9225 1
    8231     6103     6104 1
    8232     9842     9843 1
    8233     1462     1463 1
    8234     7942     7943 1
    8235     5686     5687 1
    8236     3335     3336 1
    8237     2573     2574 1
    8238     6209     6210 1
    8239     6178     6179 1
    8240     2928     2929 1
    8241     1843     1845 1
    8242     2976     2979 1
    8243     1822     1825 1
    8244     5650     5652 1
    8245     5619     5621 1
    8246     1888     1890 1
    8247     8062     8065 1
    8248     1746     1749 1
    8249     8629     8630 1
    8250     8125     8126 1
    8251     7621     7622 1
    8252     1785     1788 1
    8253     6647     6650 1
    8254     6097     6100 1
    8255     9054     9057 1
    8256     2770     2773 1
    8257     5900     5903 1
    8258     5563     5569 1
    8259     8191     8194 1
    8260     9239     9242 1
    8261     6623     6626 1
    8262     1517     1520 1
    8263     3335     3337 1
    8264     8542     8539 1
    8265     7567     7564 1
    8266     6432     6434 1
    8267      828      831 1
    8268      266      268 1
    8269     4064     4067 1
    8270     9401     9404 1
    8271     8239     8242 1
    8272     9369     9372 1
    8273     6616     6613 1
    8274     9463     9466 1
    8275     6780     6781 1
    8276     4937     4934 1
    8277     4734     4735 1
    8278     8515     8512 1
    8279     1453     1454 1
    8280     9354     9355 1
    8281     3036     3037 1
    8282      668      670 1
    8283     3993     3994 1
    8284     7255     7256 1
    8285     6052     6053 1
    8286      305      309 1
    8287     9026     9028 1
    8288     1646     1647 1
    8289     1677     1678 1
    8290     5137     5143 1
    8291     2411     2414 1
    8292     1994     1997 1
    8293     4138     4141 1
    8294     8491     8494 1
    8295     9763     9764 1
    8296     7603     7604 1
    8297     1390     1391 1
    8298     9792     9793 1
    8299     4845     4847 1
    8300     6538     6540 1
    8301     8032     8034 1
    8302     8308     8311 1
    8303     1317     1319 1
    8304     3583     3586 1
    8305     5287     5290 1
    8306     9001     9004 1
    8307     1008     1011 1
    8308     6925     6927 1
    8309      961      963 1
    8310     5190     5192 1
    8311     2613     2616 1
    8312     5190     5193 1
    8313     8080     8082 1
    8314     8713     8716 1
    8315     1946     1949 1
    8316     1915     1918 1
    8317     1211     1213 1
    8318     4248     4250 1
    8319     9495     9496 1
    8320      474      475 1
    8321     2535     2538 1
    8322     8080     8083 1
    8323     3958     3961 1
    8324     1103     1104 1
    8325     9092     9093 1
    8326     9019     9021 1
    8327     1989     1990 1
    8328     5819     5821 1
    8329     6009     6011 1
    8330     3109     3112 1
    8331     7321     7324 1
    8332     3357     3359 1
    8333      538      539 1
    8334     3326     3328 1
    8335     5106     5108 1
    8336      585      582 1
    8337     5402     5404 1
    8338     8739     8741 1
    8339     2172     2174 1
    8340     3836     3839 1
    8341      730      732 1
    8342     9680     9682 1
    8343      368      369 1
    8344     8377     8379 1
    8345     9713     9715 1
    8346     6534     6536 1
    8347     9330     9332 1
    8348     9330     9333 1
    8349     7049     7052 1
    8350     4450     4453 1
    8351     5378     5380 1
    8352     9363     9365 1
    8353     2187     2190 1
    8354     4245     4248 1
    8355     1353     1356 1
    8356     6542     6544 1
    8357     3297     3291 1
    8358     6978     6980 1
    8359     6296     6298 1
    8360     6021     6023 1
    8361     4873     4875 1
    8362     2700     2702 1
    8363     6311     6313 1
    8364     1587     1589 1
    8365     8476     8477 1
    8366     7852     7794 1
    8367     1411     1413 1
    8368     1347     1348 1
    8369     6410     6414 1
    8370     5129     5134 1
    8371     6215     6218 1
    8372     5804     5806 1
    8373     8554     8555 1
    8374     5876     5877 1
    8375     4916     4918 1
    8376     7330     7331 1
    8377     4541     4542 1
    8378     9813     9814 1
    8379     1927     1929 1
    8380     6281     6282 1
    8381     3118     3119 1
    8382     9136     9138 1
    8383     4816     4817 1
    8384     7171     7174 1
    8385     6148     6145 1
    8386     8101     8098 1
    8387     7810     7813 1
    8388     8754     8757 1
    8389     8813     8816 1
    8390     3780     3783 1
    8391     7945     7948 1
    8392     8449     8452 1
    8393     3338     3341 1
    8394     1989     1998 1
    8395     8131     8133 1
    8396     8635     8637 1
    8397     7046     7048 1
    8398     5653     5656 1
    8399     6975     6980 1
    8400     3631     3634 1
    8401     2511     2513 1
    8402      869      871 1
    8403     7150     7152 1
    8404     3903     3905 1
    8405     7831     7833 1
    8406     5133     5137 1
    8407     8698     8699 1
    8408     9348     9350 1
    8409     3418     3419 1
    8410     3934     3936 1
    8411     1137     1142 1
    8412     1900     1901 1
    8413     9666     9667 1
    8414     2644     2646 1
    8415     6172     6173 1
    8416     3990     3991 1
    8417     4946     4947 1
    8418     5847     5848 1
    8419     1156     1157 1
    8420     6018     6020 1
    8421     2341     2343 1
    8422     1078     1081 1
    8423     5595     5596 1
    8424       25       27 1
    8425     8608     8610 1
    8426     6236     6238 1
    8427     4719     4722 1
    8428     6752     6753 1
    8429       10        1 1
    8430      634      635 1
    8431     8203     8204 1
    8432     3414     3415 1
    8433     7195     7196 1
    8434     4291     4285 1
    8435     3523     3520 1
    8436     5804     5807 1
    8437     2604     2607 1
    8438     9466     9469 1
    8439     5459     5461 1
    8440     6308     6311 1
    8441     2795     2798 1
    8442     9148     9151 1
    8443     7375     7378 1
    8444     6798     6795 1
    8445      459      460 1
    8446     8776     8777 1
    8447      585      587 1
    8448     8515     8517 1
    8449     7021     7023 1
    8450     1437     1439 1
    8451     3844     3845 1
    8452     1665     1666 1
    8453     2459     2460 1
    8454     3063     3064 1
    8455     6221     6222 1
    8456     6190     6191 1
    8457      631      634 1
    8458       78       81 1
    8459     8662     8663 1
    8460     6236     6239 1
    8461     5694     5697 1
    8462     4181     4183 1
    8463     4212     4214 1
    8464      162      166 1
    8465     4115     4118 1
    8466     2239     2242 1
    8467     1381     1378 1
    8468     3662     3665 1
    8469     3343     3341 1
    8470     8287     8290 1
    8471      133      135 1
    8472     6934     6936 1
    8473     6131     6133 1
    8474     9422     9423 1
    8475      801      802 1
    8476     8916     8919 1
    8477     3973     3974 1
    8478     1121     1124 1
    8479      794      795 1
    8480     7198     7201 1
    8481     8810     8811 1
    8482     2589     2590 1
    8483     1852     1855 1
    8484     2269     2272 1
    8485     1767     1770 1
    8486      323      324 1
    8487     4091     4092 1
    8488     4109     4110 1
    8489     4338     4340 1
    8490      903      905 1
    8491     7183     7185 1
    8492     2946     2948 1
    8493     3323     3326 1
    8494     6622     6563 1
    8495     2456     2459 1
    8496     1662     1665 1
    8497     7687     7689 1
    8498     2266     2269 1
    8499      498      501 1
    8500      529      532 1
    8501     8209     8210 1
    8502     1810     1811 1
    8503      170      173 1
    8504     6641     6642 1
    8505     6610     6611 1
    8506     2338     2341 1
    8507     5357     5358 1
    8508     1721     1722 1
    8509     1920     1918 1
    8510     4230     4231 1
    8511      402      404 1
    8512     3816     3818 1
    8513     1625     1628 1
    8514     7180     7182 1
    8515     5224     5227 1
    8516     8188     8190 1
    8517     9360     9362 1
    8518     6052     6054 1
    8519     4687     4700 1
    8520     4242     4244 1
    8521     2819     2821 1
    8522     5700     5704 1
    8523      707      709 1
    8524     3564     3567 1
    8525     5268     5271 1
    8526     5746     5749 1
    8527     6986     6989 1
    8528     7168     7171 1
    8529     5282     5285 1
    8530     7696     7699 1
    8531     3767     3770 1
    8532     2610     2613 1
    8533     3828     3831 1
    8534     5770     5711 1
    8535     1906     1908 1
    8536     6450     6453 1
    8537     4770     4772 1
    8538     1082     1085 1
    8539      389      387 1
    8540     9833     9836 1
    8541     2057     2060 1
    8542     7933     7936 1
    8543     5122     5123 1
    8544     2535     2536 1
    8545     1426     1429 1
    8546     6731     6732 1
    8547     1411     1414 1
    8548     3958     3959 1
    8549     8617     8619 1
    8550     8113     8115 1
    8551     7750     7753 1
    8552     9907     9910 1
    8553      468      471 1
    8554     1091     1092 1
    8555     2066     2068 1
    8556     9786     9788 1
    8557      770      772 1
    8558     7807     7808 1
    8559     9183     9186 1
    8560     2871     2872 1
    8561     7303     7304 1
    8562     4483     4484 1
    8563     8751     8752 1
    8564     4514     4515 1
    8565     3091     3092 1
    8566     8647     8650 1
    8567     6940     6941 1
    8568     7954     7955 1
    8569     5236     5237 1
    8570     6798     6799 1
    8571     4554     4555 1
    8572     7765     7768 1
    8573     7073     7074 1
    8574     4288     4289 1
    8575     6725     6726 1
    8576     1894     1895 1
    8577      304      305 1
    8578     8798     8799 1
    8579     1242     1239 1
    8580     5628     5569 1
    8581     5891     5892 1
    8582     9566     9567 1
    8583     6166     6167 1
    8584     5816     5819 1
    8585     9276     9277 1
    8586     9083     9084 1
    8587     8569     8570 1
    8588     9292     9293 1
    8589     3709     3710 1
    8590     7249     7251 1
    8591     2628     2630 1
    8592     2846     2848 1
    8593     4082     4084 1
    8594     9707     9710 1
    8595     5824     5823 1
    8596     5154     5157 1
    8597     5789     5792 1
    8598     5758     5761 1
    8599      979      982 1
    8600      853      858 1
    8601      402      399 1
    8602     9442     9445 1
    8603     8719     8722 1
    8604     3332     3334 1
    8605     3876     3877 1
    8606     7399     7401 1
    8607     8407     8409 1
    8608     5221     5223 1
    8609     3686     3687 1
    8610     2263     2264 1
    8611     7123     7124 1
    8612     8443     8445 1
    8613     9630     9626 1
    8614     1356     1359 1
    8615     5282     5289 1
    8616     6502     6504 1
    8617     6471     6473 1
    8618     4163     4165 1
    8619     7864     7865 1
    8620     5716     5717 1
    8621     9916     9918 1
    8622      112      113 1
    8623      477      479 1
    8624     9501     9503 1
    8625     7870     7872 1
    8626     5879     5876 1
    8627     4030     4032 1
    8628     6644     6646 1
    8629     7144     7147 1
    8630     4940     4942 1
    8631     6369     6371 1
    8632     9760     9763 1
    8633     3993     3995 1
    8634     7255     7257 1
    8635     2505     2508 1
    8636     3897     3900 1
    8637     7288     7289 1
    8638     7792     7793 1
    8639     9195     9196 1
    8640     5713     5715 1
    8641     5274     5278 1
    8642     3433     3429 1
    8643     7648     7650 1
    8644     9326     9328 1
    8645     7079     7082 1
    8646     9280     9283 1
    8647     9322     9324 1
    8648     1943     1945 1
    8649     6478     6481 1
    8650     8710     8712 1
    8651     3138     3140 1
    8652     6830     6833 1
    8653     4224     4226 1
    8654     4193     4195 1
    8655     5879     5882 1
    8656     2477     2480 1
    8657     1912     1914 1
    8658     7468     7469 1
    8659     6079     6080 1
    8660     6598     6599 1
    8661     4416     4417 1
    8662      411      412 1
    8663     7972     7973 1
    8664     5070     5071 1
    8665     1292     1293 1
    8666     9072     9075 1
    8667     2671     2673 1
    8668     7591     7592 1
    8669     8095     8096 1
    8670     6142     6143 1
    8671     5487     5490 1
    8672     6768     6771 1
    8673     9169     9172 1
    8674     7978     7975 1
    8675     6033     6035 1
    8676     3013     3010 1
    8677     6064     6066 1
    8678       34       33 1
    8679     7474     7471 1
    8680     4296     4298 1
    8681     6126     6128 1
    8682     1381     1384 1
    8683      649      646 1
    8684     5873     5876 1
    8685     1012     1011 1
    8686      570      571 1
    8687     3366     3367 1
    8688     4589     4590 1
    8689     2239     2240 1
    8690     2420     2422 1
    8691     3436     3438 1
    8692     4456     4457 1
    8693     3662     3663 1
    8694     2233     2235 1
    8695     2208     2209 1
    8696     3033     3034 1
    8697     6653     6656 1
    8698     4589     4592 1
    8699     4277     4282 1
    8700     5369     5371 1
    8701     9545     9548 1
    8702     3350     3353 1
    8703     5045     5048 1
    8704     3848     3835 1
    8705     8942     8943 1
    8706     6441     6438 1
    8707     8926     8927 1
    8708     4496     4497 1
    8709      741      800 1
    8710     5293     5294 1
    8711     2292     2293 1
    8712     8575     8576 1
    8713     2442     2449 1
    8714     9839     9840 1
    8715     6290     6291 1
    8716     8878     8879 1
    8717     4505     4508 1
    8718     4990     4993 1
    8719     6187     6188 1
    8720     3212     3213 1
    8721     6218     6219 1
    8722     8886     8889 1
    8723     2857     2858 1
    8724     6462     6463 1
    8725     4280     4281 1
    8726     8554     8556 1
    8727     5876     5878 1
    8728     9339     9340 1
    8729      940      941 1
    8730     3496     3497 1
    8731     7822     7823 1
    8732     6360     6361 1
    8733      858      859 1
    8734     2314     2315 1
    8735     8830     8832 1
    8736      940      942 1
    8737     6082     6084 1
    8738     6357     6359 1
    8739     6326     6328 1
    8740     1994     1995 1
    8741     7414     7357 1
    8742     9119     9122 1
    8743      588      590 1
    8744     9280     9281 1
    8745     2541     2538 1
    8746     9233     9236 1
    8747     2471     2474 1
    8748     7822     7825 1
    8749     6601     6603 1
    8750     1381     1382 1
    8751     8698     8700 1
    8752     3418     3420 1
    8753     1900     1902 1
    8754     1335     1338 1
    8755     3003     3007 1
    8756     8458     8461 1
    8757     2659     2662 1
    8758     3862     3865 1
    8759     4961     4964 1
    8760      846      847 1
    8761      570      569 1
    8762     5502     5503 1
    8763     2931     2932 1
    8764     9626     9627 1
    8765     2900     2901 1
    8766     1106     1107 1
    8767     1665     1668 1
    8768     6879     6882 1
    8769     6604     6607 1
    8770     7684     7687 1
    8771     5196     5197 1
    8772     9316     9317 1
    8773     6978     6982 1
    8774      457      451 1
    8775     1568     1563 1
    8776     7252     7253 1
    8777     8260     8261 1
    8778     7885     7888 1
    8779     5342     5345 1
    8780     8092     8094 1
    8781     5416     5420 1
    8782     4976     4979 1
    8783     2193     2194 1
    8784     6546     6547 1
    8785       23       20 1
    8786     3492     3494 1
    8787      936      938 1
    8788     5148     5150 1
    8789     6505     6506 1
    8790     7055     7056 1
    8791     4048     4050 1
    8792     9904     9907 1
    8793     1335     1332 1
    8794     4412     4415 1
    8795     9083     9086 1
    8796     2850     2853 1
    8797     3302     3303 1
    8798     4647     4648 1
    8799     5160     5161 1
    8800     1532     1533 1
    8801     2190     2191 1
    8802     3613     3614 1
    8803     1451     1452 1
    8804     2221     2222 1
    8805     8485     8486 1
    8806     3126     3125 1
    8807       45       42 1
    8808     2731     2734 1
    8809     3978     3980 1
    8810     4462     4464 1
    8811     6273     6275 1
    8812     7076     7078 1
    8813     5030     5033 1
    8814     4236     4239 1
    8815     8392     8395 1
    8816     2813     2816 1
    8817     7384     7387 1
    8818     6197     6199 1
    8819     5711     5705 1
    8820     7684     7681 1
    8821     4027     4028 1
    8822     4972     4973 1
    8823     2897     2900 1
    8824     3770     3773 1
    8825     4132     4134 1
    8826     1483     1485 1
    8827     6345     6347 1
    8828     1587     1593 1
    8829     2439     2445 1
    8830     1414     1415 1
    8831     8810     8812 1
    8832     6082     6085 1
    8833     3039     3036 1
    8834     9592     9595 1
    8835     5106     5109 1
    8836     8739     8742 1
    8837     4861     4864 1
    8838      465      466 1
    8839     5764     5767 1
    8840      344      345 1
    8841     5737     5738 1
    8842     3709     3714 1
    8843     7123     7125 1
    8844     3876     3878 1
    8845     3686     3688 1
    8846     5447     5448 1
    8847      912      913 1
    8848     4897     4898 1
    8849     9101     9103 1
    8850     4928     4929 1
    8851     9289     9290 1
    8852     6534     6537 1
    8853      208      209 1
    8854     6983     6984 1
    8855     8926     8930 1
    8856     9286     9289 1
    8857     1692     1693 1
    8858     1263     1264 1
    8859     4215     4216 1
    8860     2761     2762 1
    8861     5357     5359 1
    8862     1721     1723 1
    8863      773      774 1
    8864     5873     5874 1
    8865     3433     3439 1
    8866     5085     5086 1
    8867     7324     7325 1
    8868     4535     4536 1
    8869     3112     3113 1
    8870     8332     8333 1
    8871     5555     5552 1
    8872     2489     2490 1
    8873     1677     1679 1
    8874     2520     2521 1
    8875     1646     1648 1
    8876     9710     9711 1
    8877     8939     8940 1
    8878     8344     8345 1
    8879     8828     8829 1
    8880     1396     1399 1
    8881     9589     9592 1
    8882     3248     3250 1
    8883     5061     5062 1
    8884     4067     4069 1
    8885     4546     4547 1
    8886     4946     4949 1
    8887     4671     4673 1
    8888     5122     5124 1
    8889     2535     2537 1
    8890     6731     6733 1
    8891     3958     3960 1
    8892     1100     1102 1
    8893     2297     2299 1
    8894     8895     8898 1
    8895     8963     8964 1
    8896     6276     6277 1
    8897     1236     1237 1
    8898     4073     4074 1
    8899     7168     7169 1
    8900     3175     3176 1
    8901     1550     1551 1
    8902     9919     9921 1
    8903      480      482 1
    8904     7672     7673 1
    8905     6583     6584 1
    8906     9433     9436 1
    8907     1311     1312 1
    8908     6725     6727 1
    8909     1894     1896 1
    8910      304      306 1
    8911     8798     8800 1
    8912     5242     5243 1
    8913     3215     3216 1
    8914     7456     7457 1
    8915     4940     4943 1
    8916     5474     5475 1
    8917     6659     6660 1
    8918     9639     9640 1
    8919     2653     2654 1
    8920        7        6 1
    8921     6975     6976 1
    8922     2622     2623 1
    8923     9528     9529 1
    8924     4045     4046 1
    8925     1743     1744 1
    8926     9876     9878 1
    8927     8998     9001 1
    8928     7132     7134 1
    8929     8689     8691 1
    8930     6789     6792 1
    8931     3152     3155 1
    8932     2305     2307 1
    8933     6638     6640 1
    8934     4057     4059 1
    8935     4088     4090 1
    8936     5169     5170 1
    8937     6968     6969 1
    8938     6120     6121 1
    8939     3610     3607 1
    8940     3578     3579 1
    8941     9186     9188 1
    8942     9819     9820 1
    8943      326      329 1
    8944     6598     6601 1
    8945     9504     9505 1
    8946      320      322 1
    8947     6592     6594 1
    8948     2121     2123 1
    8949     9413     9415 1
    8950      417      419 1
    8951     2048     2050 1
    8952     6873     6875 1
    8953     7144     7145 1
    8954      173      174 1
    8955     3897     3898 1
    8956     2474     2475 1
    8957     2505     2506 1
    8958     5329     5331 1
    8959     6514     6516 1
    8960     1724     1726 1
    8961     4270     4272 1
    8962      640      642 1
    8963     5140     5142 1
    8964     9886     9889 1
    8965     4233     4236 1
    8966      649      651 1
    8967     5410     5412 1
    8968     8936     8938 1
    8969     2008     2010 1
    8970     1643     1646 1
    8971      286      288 1
    8972     3978     3981 1
    8973     4558     4560 1
    8974     5036     5038 1
    8975     6262     6264 1
    8976     1940     1942 1
    8977     8707     8709 1
    8978     9189     9190 1
    8979     5085     5082 1
    8980      443      444 1
    8981     1816     1819 1
    8982     6200     6201 1
    8983      443      448 1
    8984     3144     3148 1
    8985     2453     2450 1
    8986     2801     2802 1
    8987     1737     1738 1
    8988     8071     8072 1
    8989     8545     8487 1
    8990     7567     7568 1
    8991     9572     9573 1
    8992     5708     5709 1
    8993     3393     3395 1
    8994     4496     4499 1
    8995      315      316 1
    8996     3761     3762 1
    8997     5342     5343 1
    8998     4987     4988 1
    8999     3758     3760 1
    9000     3166     3168 1
    9001     5462     5464 1
    9002     7756     7759 1
    9003     7416     7419 1
    9004     2013     2014 1
    9005     8819     8822 1
    9006     7582     7583 1
    9007     6737     6738 1
    9008     7513     7515 1
    9009     8521     8523 1
    9010     1323     1326 1
    9011      368      371 1
    9012     2999     3004 1
    9013      559      562 1
    9014     7450     7451 1
    9015     3378     3379 1
    9016     3347     3348 1
    9017     7774     7775 1
    9018      779      782 1
    9019     5429     5431 1
    9020     3807     3810 1
    9021     5734     5735 1
    9022     2439     2440 1
    9023     7164     7167 1
    9024     7668     7671 1
    9025     6134     6137 1
    9026     6752     6754 1
    9027      634      636 1
    9028     8119     8122 1
    9029     7627     7630 1
    9030     3263     3265 1
    9031     8146     8149 1
    9032     8650     8653 1
    9033       39       40 1
    9034     7525     7528 1
    9035     7714     7717 1
    9036      578      581 1
    9037     4119     4120 1
    9038     2372     2375 1
    9039      178      179 1
    9040      263      264 1
    9041     2100     2101 1
    9042     1471     1472 1
    9043     6577     6578 1
    9044      167      169 1
    9045     4856     4859 1
    9046     7366     7368 1
    9047     3169     3170 1
    9048      973      974 1
    9049     8374     8376 1
    9050     5725     5728 1
    9051     4931     4934 1
    9052     6943     6944 1
    9053     8566     8569 1
    9054     3706     3709 1
    9055     2199     2202 1
    9056     6807     6810 1
    9057     7070     7072 1
    9058     7039     7041 1
    9059     1604     1606 1
    9060     5641     5643 1
    9061     5091     5093 1
    9062     3428     3430 1
    9063      988      991 1
    9064     8563     8565 1
    9065     7960     7961 1
    9066     5157     5158 1
    9067     8644     8645 1
    9068     6764     6705 1
    9069     5505     5507 1
    9070     6994     6997 1
    9071     6338     6279 1
    9072     4341     4342 1
    9073     1193     1196 1
    9074      538      541 1
    9075     6258     6261 1
    9076     7042     7045 1
    9077     8608     8550 1
    9078       33       36 1
    9079     9892     9894 1
    9080     7864     7861 1
    9081     3439     3440 1
    9082     7789     7790 1
    9083     7285     7286 1
    9084     9119     9120 1
    9085     1341     1343 1
    9086     8527     8529 1
    9087     3193     3194 1
    9088     2447     2448 1
    9089     9033     9034 1
    9090      906      907 1
    9091     2876     2877 1
    9092     4299     4300 1
    9093     9030     9032 1
    9094     6549     6554 1
    9095     9254     9255 1
    9096     4384     4385 1
    9097     4919     4921 1
    9098      894      896 1
    9099     5555     5557 1
    9100      190      192 1
    9101     8560     8563 1
    9102     9219     9221 1
    9103     6768     6765 1
    9104      738      741 1
    9105     9519     9522 1
    9106     2749     2750 1
    9107     1955     1956 1
    9108     5934     5935 1
    9109     6396     6397 1
    9110     9104     9107 1
    9111      393      396 1
    9112     4221     4223 1
    9113     7306     7308 1
    9114     7810     7812 1
    9115     2308     2311 1
    9116     8754     8756 1
    9117     2069     2072 1
    9118     6012     6015 1
    9119     9480     9481 1
    9120     7981     7924 1
    9121     4743     4746 1
    9122     2166     2169 1
    9123     8413     8414 1
    9124     8913     8914 1
    9125      550      551 1
    9126     8954     8955 1
    9127     5302     5303 1
    9128      436      439 1
    9129     5061     5063 1
    9130     4546     4548 1
    9131     9407     9408 1
    9132     8757     8760 1
    9133     9786     9789 1
    9134     6493     6494 1
    9135     8960     8961 1
    9136     5583     5584 1
    9137     1399     1400 1
    9138     6885     6882 1
    9139     3677     3678 1
    9140     1190     1191 1
    9141     1582     1586 1
    9142     9295     9298 1
    9143     6378     6380 1
    9144     6972     6959 1
    9145     3405     3408 1
    9146     3547     3550 1
    9147     3844     3847 1
    9148     9219     9222 1
    9149      671      672 1
    9150     6354     6357 1
    9151     1970     1971 1
    9152     7840     7841 1
    9153     7336     7337 1
    9154     8898     8901 1
    9155     6033     6036 1
    9156     8863     8865 1
    9157     6064     6067 1
    9158     4696     4698 1
    9159     4311     4313 1
    9160     4236     4237 1
    9161     2813     2814 1
    9162     8957     8958 1
    9163     4870     4873 1
    9164     2782     2783 1
    9165     7633     7635 1
    9166     4728     4730 1
    9167     3444     3445 1
    9168     5109     5112 1
    9169     9272     9273 1
    9170     8038     8041 1
    9171     8542     8545 1
    9172     6849     6851 1
    9173     7786     7788 1
    9174     8290     8292 1
    9175     8248     8251 1
    9176     5946     5947 1
    9177     5978     5981 1
    9178     5387     5390 1
    9179     8995     8996 1
    9180     2362     2303 1
    9181     8161     8162 1
    9182     6740     6743 1
    9183     1634     1637 1
    9184     2819     2822 1
    9185      492      493 1
    9186     7837     7840 1
    9187     5009     5012 1
    9188      359      362 1
    9189     7333     7336 1
    9190     2415     2416 1
    9191     9801     9804 1
    9192      773      775 1
    9193     7234     7235 1
    9194     7738     7739 1
    9195     1115     1116 1
    9196     1118     1120 1
    9197     3033     3036 1
    9198     5681     5686 1
    9199     7639     7641 1
    9200      559      561 1
    9201     6299     6300 1
    9202      970      971 1
    9203     2523     2526 1
    9204      440      427 1
    9205     8347     8350 1
    9206     8011     8014 1
    9207     2699     2704 1
    9208     8125     8127 1
    9209     4468     4470 1
    9210     6154     6157 1
    9211     5360     5363 1
    9212     5694     5696 1
    9213     7573     7576 1
    9214     5393     5396 1
    9215     6404     6407 1
    9216     1440     1441 1
    9217     6354     6355 1
    9218     5529     5530 1
    9219     4619     4620 1
    9220     3227     3228 1
    9221     8026     8029 1
    9222     2592     2593 1
    9223     8530     8533 1
    9224      512      510 1
    9225     4266     4261 1
    9226     3644     3645 1
    9227     8398     8401 1
    9228     4483     4486 1
    9229     7807     7810 1
    9230     8751     8754 1
    9231     1103     1105 1
    9232     7303     7306 1
    9233     9092     9094 1
    9234     4514     4517 1
    9235     3091     3094 1
    9236     2408     2410 1
    9237     6635     6637 1
    9238     1773     1775 1
    9239     7699     7701 1
    9240     2999     3001 1
    9241     6054     5995 1
    9242     3831     3833 1
    9243     4422     4424 1
    9244     1112     1113 1
    9245     2888     2891 1
    9246     1251     1252 1
    9247     2647     2648 1
    9248      260      261 1
    9249     4070     4071 1
    9250     1598     1600 1
    9251     7033     7035 1
    9252     5487     5489 1
    9253     5094     5096 1
    9254      381      378 1
    9255     6314     6317 1
    9256     2871     2865 1
    9257     6296     6299 1
    9258     6021     6024 1
    9259     2837     2834 1
    9260     1698     1699 1
    9261     6719     6720 1
    9262     4888     4891 1
    9263     7390     7387 1
    9264     8778     8776 1
    9265     6000     5997 1
    9266     9819     9821 1
    9267     7711     7712 1
    9268     7207     7208 1
    9269     3076     3077 1
    9270     5103     5104 1
    9271     8736     8737 1
    9272      831      834 1
    9273      309      315 1
    9274     1124     1126 1
    9275     4943     4945 1
    9276     8989     8990 1
    9277     4912     4914 1
    9278     4393     4395 1
    9279     5480     5481 1
    9280     6061     6062 1
    9281     3280     3267 1
    9282     2505     2507 1
    9283     7144     7146 1
    9284     3897     3899 1
    9285     2474     2476 1
    9286     8167     8109 1
    9287     8671     8613 1
    9288     5958     5959 1
    9289     3552     3555 1
    9290     9895     9898 1
    9291     9669     9670 1
    9292     5450     5451 1
    9293      716      711 1
    9294     5215     5216 1
    9295     7429     7430 1
    9296     8826     8827 1
    9297     2882     2883 1
    9298     4909     4910 1
    9299     9339     9341 1
    9300     3106     3108 1
    9301     8766     8768 1
    9302     7822     7824 1
    9303     2934     2936 1
    9304     4326     4328 1
    9305     2903     2905 1
    9306     2178     2181 1
    9307     4462     4465 1
    9308     7076     7079 1
    9309     6197     6200 1
    9310     7456     7459 1
    9311     6036     6039 1
    9312     1480     1483 1
    9313      810      812 1
    9314      752      755 1
    9315     2740     2743 1
    9316     1952     1949 1
    9317     2841     2854 1
    9318     8719     8716 1
    9319      888      889 1
    9320     2106     2107 1
    9321     5777     5778 1
    9322     4042     4043 1
    9323        8        6 1
    9324     2807     2809 1
    9325     9733     9735 1
    9326     7882     7883 1
    9327     3967     3970 1
    9328     4801     4804 1
    9329     9460     9463 1
    9330     3595     3597 1
    9331     7378     7379 1
    9332      523      524 1
    9333      365      366 1
    9334     2106     2109 1
    9335     8176     8179 1
    9336     1033     1034 1
    9337     5722     5725 1
    9338     4082     4079 1
    9339     4876     4873 1
    9340     5903     5905 1
    9341     7294     7296 1
    9342     8419     8361 1
    9343     6710     6712 1
    9344     1964     1966 1
    9345     1689     1691 1
    9346     9886     9887 1
    9347     2865     2867 1
    9348     7681     7682 1
    9349     1755     1756 1
    9350     8185     8186 1
    9351     3885     3887 1
    9352     2462     2464 1
    9353      601      604 1
    9354     8056     8057 1
    9355     8560     8561 1
    9356     9557     9558 1
    9357     2850     2851 1
    9358     4916     4917 1
    9359     6743     6744 1
    9360     7588     7589 1
    9361     8476     8479 1
    9362      202      203 1
    9363     6418     6419 1
    9364     6882     6883 1
    9365     2918     2919 1
    9366     6607     6608 1
    9367      233      234 1
    9368      420      421 1
    9369     2051     2052 1
    9370     4097     4098 1
    9371     6218     6221 1
    9372     6187     6190 1
    9373     2009     2013 1
    9374     6462     6465 1
    9375     8662     8664 1
    9376     8251     8253 1
    9377     8730     8732 1
    9378     5097     5099 1
    9379     4493     4495 1
    9380     2868     2871 1
    9381     7300     7303 1
    9382     4511     4514 1
    9383     7804     7807 1
    9384     6351     6348 1
    9385     5397     5398 1
    9386     2604     2605 1
    9387      311      309 1
    9388     6653     6654 1
    9389     8221     8222 1
    9390     2723     2724 1
    9391      887      880 1
    9392     9369     9370 1
    9393     7852     7853 1
    9394     7348     7349 1
    9395      695      696 1
    9396     5024     5025 1
    9397     1650     1653 1
    9398     8954     8957 1
    9399     3366     3369 1
    9400     8323     8326 1
    9401     6771     6773 1
    9402     9172     9174 1
    9403     2184     2186 1
    9404     3607     3609 1
    9405     9457     9460 1
    9406     1894     1897 1
    9407     6725     6728 1
    9408     2224     2226 1
    9409     3616     3618 1
    9410     3977     3982 1
    9411     7789     7791 1
    9412     7285     7287 1
    9413     8308     8305 1
    9414     4236     4238 1
    9415     8957     8959 1
    9416     2813     2815 1
    9417     4688     4689 1
    9418     8298     8299 1
    9419     5203     5204 1
    9420     6478     6479 1
    9421     2782     2784 1
    9422     4190     4193 1
    9423     6907     6908 1
    9424     9207     9210 1
    9425     9780     9783 1
    9426      323      325 1
    9427     2039     2041 1
    9428     4109     4111 1
    9429     3462     3464 1
    9430     9113     9115 1
    9431     2686     2688 1
    9432     6465     6467 1
    9433     2576     2579 1
    9434     7639     7642 1
    9435     2749     2751 1
    9436     1955     1957 1
    9437      170      171 1
    9438     5079     5080 1
    9439     4829     4838 1
    9440     7972     7975 1
    9441     7468     7471 1
    9442     5647     5648 1
    9443     9810     9812 1
    9444     5616     5617 1
    9445     5873     5875 1
    9446     8065     8066 1
    9447     1181     1182 1
    9448     5427     5428 1
    9449     4021     4018 1
    9450     7999     8001 1
    9451     3867     3869 1
    9452     4731     4728 1
    9453      813      816 1
    9454     9701     9704 1
    9455     1022     1025 1
    9456     3552     3554 1
    9457     1199     1200 1
    9458     3088     3089 1
    9459      347      349 1
    9460     4480     4481 1
    9461     5740     5742 1
    9462     8954     8956 1
    9463     5302     5304 1
    9464       48       51 1
    9465     4755     4756 1
    9466     7290     7293 1
    9467     7794     7797 1
    9468     7227     7230 1
    9469     1082     1084 1
    9470     7612     7615 1
    9471     9313     9316 1
    9472     8647     8648 1
    9473     5548     5549 1
    9474     2326     2327 1
    9475     7159     7101 1
    9476     4592     4593 1
    9477     6852     6853 1
    9478     4317     4318 1
    9479     1831     1832 1
    9480     8230     8231 1
    9481      384      385 1
    9482     6387     6388 1
    9483     9407     9409 1
    9484     7657     7658 1
    9485     6116     6117 1
    9486     9130     9126 1
    9487     9857     9858 1
    9488     1477     1478 1
    9489     9328     9329 1
    9490     3181     3182 1
    9491     1399     1401 1
    9492     3677     3679 1
    9493     1190     1192 1
    9494     2431     2432 1
    9495     3384     3385 1
    9496     3854     3855 1
    9497     8454     8452 1
    9498     2786     2787 1
    9499     2088     2091 1
    9500     3511     3514 1
    9501      181      183 1
    9502     2622     2624 1
    9503     9376     9380 1
    9504     8886     8888 1
    9505      526      529 1
    9506     9398     9401 1
    9507     1879     1882 1
    9508     4160     4162 1
    9509     2547     2549 1
    9510      625      627 1
    9511     2737     2739 1
    9512     1366     1369 1
    9513     7780     7781 1
    9514     7138     7139 1
    9515     9795     9798 1
    9516     5018     5019 1
    9517     6529     6532 1
    9518     1798     1799 1
    9519     7870     7873 1
    9520      828      830 1
    9521     9604     9606 1
    9522     8293     8294 1
    9523     3483     3486 1
    9524     8254     8255 1
    9525     8248     8250 1
    9526     9201     9203 1
    9527     9922     9923 1
    9528     1362     1363 1
    9529      616      619 1
    9530     3498     3439 1
    9531     2958     2960 1
    9532     9454     9456 1
    9533     4381     4383 1
    9534     2952     2954 1
    9535     4375     4377 1
    9536     9251     9253 1
    9537     9245     9247 1
    9538      242      244 1
    9539     2347     2350 1
    9540     8857     8860 1
    9541     8506     8508 1
    9542     7498     7500 1
    9543     9180     9182 1
    9544     2842     2845 1
    9545     5700     5703 1
    9546     6435     6436 1
    9547     1175     1176 1
    9548     7834     7835 1
    9549      646      647 1
    9550     2019     2020 1
    9551     9142     9143 1
    9552     1576     1578 1
    9553     2879     2881 1
    9554     5212     5214 1
    9555      952      954 1
    9556     2934     2937 1
    9557     4326     4329 1
    9558     7519     7522 1
    9559      459      462 1
    9560     8023     8026 1
    9561     3214     3155 1
    9562     9536     9539 1
    9563     5255     5256 1
    9564     3702     3704 1
    9565     9536     9538 1
    9566     3387     3390 1
    9567     7180     7183 1
    9568     3816     3819 1
    9569     7963     7966 1
    9570     5671     5673 1
    9571     9816     9817 1
    9572     8109     8110 1
    9573     8613     8614 1
    9574     8680     8683 1
    9575     1124     1125 1
    9576     8440     8443 1
    9577     2289     2290 1
    9578     2214     2211 1
    9579     6511     6514 1
    9580     3329     3332 1
    9581     5925     5926 1
    9582     5858     5860 1
    9583     9533     9535 1
    9584     9901     9903 1
    9585     5668     5670 1
    9586     7082     7085 1
    9587     8281     8282 1
    9588     2915     2918 1
    9589     5196     5198 1
    9590     2692     2695 1
    9591     1196     1197 1
    9592     8584     8585 1
    9593     1280     1281 1
    9594     3977     3990 1
    9595     7435     7436 1
    9596     6894     6895 1
    9597     3363     3364 1
    9598     6922     6924 1
    9599     7939     7940 1
    9600     7309     7312 1
    9601     9728     9729 1
    9602     5299     5302 1
    9603     6728     6731 1
    9604     8976     8977 1
    9605      837      839 1
    9606      825      828 1
    9607     9742     9743 1
    9608     9601     9604 1
    9609     3474     3477 1
    9610     2082     2085 1
    9611     4703     4700 1
    9612     1251     1253 1
    9613     4124     4127 1
    9614     9826     9828 1
    9615     8603     8602 1
    9616     5352     5351 1
    9617     2471     2472 1
    9618     8326     8327 1
    9619     2708     2711 1
    9620     4656     4657 1
    9621     5566     5569 1
    9622     6533     6534 1
    9623     2967     2968 1
    9624      251      252 1
    9625     4390     4391 1
    9626     1069     1070 1
    9627     8659     8660 1
    9628     9454     9457 1
    9629     9316     9319 1
    9630     1048     1050 1
    9631     9695     9697 1
    9632      894      897 1
    9633      190      193 1
    9634     7731     7732 1
    9635     9907     9908 1
    9636     8235     8236 1
    9637     4444     4447 1
    9638     5421     5422 1
    9639     2996     2983 1
    9640     6268     6270 1
    9641     5042     5044 1
    9642     1205     1206 1
    9643     6740     6741 1
    9644     4864     4867 1
    9645     8989     8991 1
    9646     7088     7090 1
    9647     1653     1655 1
    9648     1622     1624 1
    9649     4761     4764 1
    9650     3502     3505 1
    9651     2988     2983 1
    9652     3471     3474 1
    9653      946      949 1
    9654     2079     2082 1
    9655     3631     3632 1
    9656     5539     5540 1
    9657     1891     1894 1
    9658     1260     1262 1
    9659     5366     5368 1
    9660     1036     1033 1
    9661     3002     3006 1
    9662     7756     7757 1
    9663     3622     3624 1
    9664     7786     7789 1
    9665     2036     2037 1
    9666     3459     3460 1
    9667      245      248 1
    9668     3986     3987 1
    9669     6709     6707 1
    9670     1652     1593 1
    9671     3302     3299 1
    9672     2589     2591 1
    9673     7159     7160 1
    9674      547      548 1
    9675     8910     8911 1
    9676     5441     5442 1
    9677     5728     5729 1
    9678     4659     4660 1
    9679     9866     9868 1
    9680     4644     4646 1
    9681      988      990 1
    9682     1520     1521 1
    9683     2124     2125 1
    9684     7582     7585 1
    9685     6737     6740 1
    9686      556      558 1
    9687     5638     5641 1
    9688     2245     2247 1
    9689     9166     9169 1
    9690      787      785 1
    9691     6589     6586 1
    9692     6478     6480 1
    9693     9210     9213 1
    9694     1840     1843 1
    9695     4662     4663 1
    9696     3208     3209 1
    9697     4607     4610 1
    9698     4311     4314 1
    9699     4447     4448 1
    9700     5051     5052 1
    9701     5082     5083 1
    9702     6949     6951 1
    9703     6070     6072 1
    9704     3731     3733 1
    9705     3042     3044 1
    9706     9151     9153 1
    9707     2798     2800 1
    9708     6780     6783 1
    9709     1634     1636 1
    9710     3529     3532 1
    9711     5508     5511 1
    9712     2307     2300 1
    9713     4976     4978 1
    9714     1161     1167 1
    9715     4456     4459 1
    9716     5287     5288 1
    9717     8560     8562 1
    9718     9557     9559 1
    9719     8056     8058 1
    9720     2850     2852 1
    9721     4668     4669 1
    9722     1541     1542 1
    9723     3245     3246 1
    9724     4755     4757 1
    9725     3088     3090 1
    9726     1199     1201 1
    9727     4480     4482 1
    9728     2718     2722 1
    9729     1004     1007 1
    9730     4647     4649 1
    9731     3556     3551 1
    9732     1532     1534 1
    9733     7900     7902 1
    9734     3764     3766 1
    9735     3795     3797 1
    9736     2372     2374 1
    9737     4128     4131 1
    9738     4239     4240 1
    9739     2816     2817 1
    9740     8086     8087 1
    9741     6607     6610 1
    9742     3848     3849 1
    9743     6030     6031 1
    9744     5613     5614 1
    9745      995     1008 1
    9746     5644     5645 1
    9747     5424     5425 1
    9748     5697     5698 1
    9749     9730     9731 1
    9750     3592     3593 1
    9751     2169     2170 1
    9752     2584     2585 1
    9753     2804     2805 1
    9754     9292     9295 1
    9755     5218     5221 1
    9756     8656     8657 1
    9757      294      297 1
    9758     1706     1709 1
    9759     7201     7204 1
    9760     7705     7708 1
    9761     1590     1593 1
    9762     7906     7909 1
    9763     8792     8794 1
    9764     7867     7870 1
    9765     1091     1094 1
    9766     5552     5554 1
    9767     1659     1662 1
    9768     1366     1368 1
    9769     7351     7294 1
    9770     5771     5773 1
    9771     6841     6842 1
    9772     2708     2710 1
    9773     3961     3962 1
    9774     8632     8634 1
    9775     1459     1461 1
    9776     6375     6377 1
    9777     2538     2539 1
    9778     7135     7137 1
    9779     2465     2467 1
    9780     7052     7054 1
    9781     3888     3890 1
    9782      628      630 1
    9783     9289     9291 1
    9784     5662     5665 1
    9785     1909     1912 1
    9786     4146     4149 1
    9787     2912     2915 1
    9788     5203     5206 1
    9789     6907     6910 1
    9790     8563     8564 1
    9791     3283     3285 1
    9792     3786     3788 1
    9793     2332     2334 1
    9794     3024     3027 1
    9795     4706     4708 1
    9796     7897     7898 1
    9797     7393     7394 1
    9798     6888     6890 1
    9799      924      926 1
    9800     8401     8402 1
    9801     6480     6421 1
    9802     4262     4261 1
    9803     6236     6233 1
    9804     1214     1216 1
    9805     9657     9660 1
    9806     5916     5919 1
    9807     5885     5888 1
    9808     7446     7444 1
    9809     3326     3329 1
    9810     7783     7786 1
    9811     2172     2175 1
    9812     9848     9849 1
    9813     4955     4956 1
    9814     3922     3924 1
    9815     5626     5628 1
    9816     2699     2708 1
    9817     3713     3717 1
    9818     1637     1639 1
    9819     3152     3154 1
    9820      604      606 1
    9821     7082     7084 1
    9822     9763     9766 1
    9823     8350     8352 1
    9824     1187     1189 1
    9825     2526     2528 1
@<TRIPOS>SUBSTRUCTURE
       1 RES             1 RESIDUE    0 **** ROOT      0
