@<TRIPOS>MOLECULE
RES
12032 9344 1 0 1
SMALL
NO_CHARGES
@<TRIPOS>CRYSIN
   62.2364    54.1764   122.5660    90.0000    90.0000    90.0000  1  1
@<TRIPOS>ATOM
       1 CH3         27.0302    32.0533    83.9290 CH3           1 RES     
       2 CH3         24.7371    32.5777    83.9317 CH3           1 RES     
       3 CH3         26.1309    33.5880    85.2807 CH3           1 RES     
       4 NL          25.9900    33.0207    84.0937 NL            1 RES     
       5 CH2         26.2420    34.0826    83.2291 CH2           1 RES     
       6 CH2         26.0699    33.3908    81.8640 CH2           1 RES     
       7 OA          26.3028    34.3750    80.7767 OA            1 RES     
       8 P           24.9009    35.0591    80.4204 P             1 RES     
       9 OM          23.9328    33.8916    79.9108 OM            1 RES     
      10 OM          24.4012    35.8061    81.7441 OM            1 RES     
      11 OA          25.1110    36.1290    79.2495 OA            1 RES     
      12 CH2         23.7929    36.7420    78.9461 CH2           1 RES     
      13 CH1         23.6915    37.1266    77.6474 CH1           1 RES     
      14 OE          22.6567    36.0845    77.5821 OE            1 RES     
      15 C           22.2695    35.3511    76.3323 C             1 RES     
      16 O           21.8193    34.2067    76.3072 O             1 RES     
      17 CH2         22.7375    36.1975    75.3129 CH2           1 RES     
      18 CH2         22.4573    35.3690    74.0454 CH2           1 RES     
      19 CH2         23.0724    36.0754    72.8230 CH2           1 RES     
      20 CH2         22.7921    35.2469    71.5555 CH2           1 RES     
      21 CH2         23.4073    35.9534    70.3332 CH2           1 RES     
      22 CH2         23.1270    35.1249    69.0656 CH2           1 RES     
      23 CH2         23.7421    35.8313    67.8433 CH2           1 RES     
      24 CH2         23.4619    35.0028    66.5758 CH2           1 RES     
      25 CH2         24.0770    35.7093    65.3534 CH2           1 RES     
      26 CH2         23.7967    34.8808    64.0859 CH2           1 RES     
      27 CH2         24.4119    35.5873    62.8635 CH2           1 RES     
      28 CH2         24.1316    34.7588    61.5960 CH2           1 RES     
      29 CH2         24.7467    35.4652    60.3737 CH2           1 RES     
      30 CH2         24.4665    34.6367    59.1061 CH2           1 RES     
      31 CH2         25.0816    35.3432    57.8838 CH2           1 RES     
      32 CH2         24.8013    34.5147    56.6162 CH2           1 RES     
      33 CH3         25.3885    35.1890    55.4495 CH3           1 RES     
      34 CH2         24.9439    36.6548    76.8854 CH2           1 RES     
      35 OE          24.4285    36.0877    75.6375 OE            1 RES     
      36 C           25.7381    35.6851    75.0267 C             1 RES     
      37 O           26.8352    35.8553    75.5560 O             1 RES     
      38 CH2         25.3740    35.3050    73.7238 CH2           1 RES     
      39 CH2         26.7405    35.0278    73.0701 CH2           1 RES     
      40 CH2         26.5462    34.7618    71.5658 CH2           1 RES     
      41 CH2         27.9127    34.4845    70.9120 CH2           1 RES     
      42 CH2         27.7184    34.2185    69.4077 CH2           1 RES     
      43 CH2         29.0849    33.9412    68.7540 CH2           1 RES     
      44 CH2         28.8906    33.6752    67.2496 CH2           1 RES     
      45 CH2         30.2571    33.3979    66.5959 CH2           1 RES     
      46 CH2         30.0628    33.1319    65.0915 CH2           1 RES     
      47 CH2         31.4293    32.8546    64.4378 CH2           1 RES     
      48 CH2         31.2350    32.5886    62.9334 CH2           1 RES     
      49 CH2         32.6015    32.3113    62.2797 CH2           1 RES     
      50 CH2         32.4072    32.0453    60.7754 CH2           1 RES     
      51 CH2         33.7737    31.7680    60.1217 CH2           1 RES     
      52 CH2         33.5794    31.5020    58.6173 CH2           1 RES     
      53 CH2         34.9459    31.2247    57.9636 CH2           1 RES     
      54 CH3         34.7604    30.9708    56.5276 CH3           1 RES     
      55 CH3         21.4589    43.1958    83.9290 CH3           1 RES     
      56 CH3         19.1226    42.9227    83.9317 CH3           1 RES     
      57 CH3         20.0979    44.3411    85.2807 CH3           1 RES     
      58 NL          20.1550    43.7594    84.0937 NL            1 RES     
      59 CH2         20.0371    44.8443    83.2291 CH2           1 RES     
      60 CH2         20.1065    44.1348    81.8640 CH2           1 RES     
      61 OA          19.9965    45.1402    80.7767 OA            1 RES     
      62 P           18.4466    45.3158    80.4204 P             1 RES     
      63 OM          17.9250    43.8916    79.9108 OM            1 RES     
      64 OM          17.7257    45.8525    81.7441 OM            1 RES     
      65 OA          18.2865    46.3943    79.2495 OA            1 RES     
      66 CH2         16.8392    46.5308    78.9461 CH2           1 RES     
      67 CH1         16.6150    46.8593    77.6474 CH1           1 RES     
      68 OE          15.9886    45.5311    77.5821 OE            1 RES     
      69 C           15.8691    44.7103    76.3323 C             1 RES     
      70 O           15.8279    43.4812    76.3072 O             1 RES     
      71 CH2         16.0269    45.6645    75.3129 CH2           1 RES     
      72 CH2         16.0401    44.7900    74.0454 CH2           1 RES     
      73 CH2         16.3833    45.6616    72.8230 CH2           1 RES     
      74 CH2         16.3965    44.7871    71.5555 CH2           1 RES     
      75 CH2         16.7397    45.6587    70.3332 CH2           1 RES     
      76 CH2         16.7529    44.7841    69.0656 CH2           1 RES     
      77 CH2         17.0961    45.6557    67.8433 CH2           1 RES     
      78 CH2         17.1093    44.7812    66.5758 CH2           1 RES     
      79 CH2         17.4525    45.6528    65.3534 CH2           1 RES     
      80 CH2         17.4657    44.7782    64.0859 CH2           1 RES     
      81 CH2         17.8089    45.6498    62.8635 CH2           1 RES     
      82 CH2         17.8221    44.7753    61.5960 CH2           1 RES     
      83 CH2         18.1653    45.6469    60.3737 CH2           1 RES     
      84 CH2         18.1785    44.7723    59.1061 CH2           1 RES     
      85 CH2         18.5217    45.6439    57.8838 CH2           1 RES     
      86 CH2         18.5349    44.7694    56.6162 CH2           1 RES     
      87 CH3         18.8625    45.6014    55.4495 CH3           1 RES     
      88 CH2         17.9530    46.8338    76.8854 CH2           1 RES     
      89 OE          17.6571    46.1270    75.6375 OE            1 RES     
      90 C           19.0259    46.1859    75.0267 C             1 RES     
      91 O           20.0029    46.7134    75.5560 O             1 RES     
      92 CH2         18.8100    45.7058    73.7238 CH2           1 RES     
      93 CH2         20.1906    45.9018    73.0701 CH2           1 RES     
      94 CH2         20.0965    45.5862    71.5658 CH2           1 RES     
      95 CH2         21.4770    45.7822    70.9120 CH2           1 RES     
      96 CH2         21.3829    45.4665    69.4077 CH2           1 RES     
      97 CH2         22.7634    45.6625    68.7540 CH2           1 RES     
      98 CH2         22.6693    45.3468    67.2496 CH2           1 RES     
      99 CH2         24.0498    45.5428    66.5959 CH2           1 RES     
     100 CH2         23.9557    45.2271    65.0915 CH2           1 RES     
     101 CH2         25.3363    45.4231    64.4378 CH2           1 RES     
     102 CH2         25.2422    45.1074    62.9334 CH2           1 RES     
     103 CH2         26.6227    45.3034    62.2797 CH2           1 RES     
     104 CH2         26.5286    44.9877    60.7754 CH2           1 RES     
     105 CH2         27.9091    45.1837    60.1217 CH2           1 RES     
     106 CH2         27.8150    44.8680    58.6173 CH2           1 RES     
     107 CH2         29.1955    45.0640    57.9636 CH2           1 RES     
     108 CH3         29.1057    44.7627    56.5276 CH3           1 RES     
     109 CH3         27.0302    15.3395    83.9290 CH3           1 RES     
     110 CH3         24.7669    15.9803    83.9317 CH3           1 RES     
     111 CH3         26.2104    16.9181    85.2807 CH3           1 RES     
     112 NL          26.0408    16.3588    84.0937 NL            1 RES     
     113 CH2         26.3466    17.4064    83.2291 CH2           1 RES     
     114 CH2         26.1395    16.7243    81.8640 CH2           1 RES     
     115 OA          26.4222    17.6953    80.7767 OA            1 RES     
     116 P           25.0572    18.4501    80.4204 P             1 RES     
     117 OM          24.0307    17.3335    79.9108 OM            1 RES     
     118 OM          24.5962    19.2217    81.7441 OM            1 RES     
     119 OA          25.3216    19.5078    79.2495 OA            1 RES     
     120 CH2         24.0365    20.1873    78.9461 CH2           1 RES     
     121 CH1         23.9548    20.5766    77.6474 CH1           1 RES     
     122 OE          22.8682    19.5887    77.5821 OE            1 RES     
     123 C           22.4440    18.8760    76.3323 C             1 RES     
     124 O           21.9360    17.7561    76.3072 O             1 RES     
     125 CH2         22.9547    19.6974    75.3129 CH2           1 RES     
     126 CH2         22.6325    18.8843    74.0454 CH2           1 RES     
     127 CH2         23.2829    19.5584    72.8230 CH2           1 RES     
     128 CH2         22.9607    18.7453    71.5555 CH2           1 RES     
     129 CH2         23.6111    19.4195    70.3332 CH2           1 RES     
     130 CH2         23.2889    18.6063    69.0656 CH2           1 RES     
     131 CH2         23.9393    19.2805    67.8433 CH2           1 RES     
     132 CH2         23.6171    18.4674    66.5758 CH2           1 RES     
     133 CH2         24.2675    19.1415    65.3534 CH2           1 RES     
     134 CH2         23.9453    18.3284    64.0859 CH2           1 RES     
     135 CH2         24.5957    19.0025    62.8635 CH2           1 RES     
     136 CH2         24.2735    18.1894    61.5960 CH2           1 RES     
     137 CH2         24.9239    18.8636    60.3737 CH2           1 RES     
     138 CH2         24.6017    18.0504    59.1061 CH2           1 RES     
     139 CH2         25.2521    18.7246    57.8838 CH2           1 RES     
     140 CH2         24.9299    17.9115    56.6162 CH2           1 RES     
     141 CH3         25.5507    18.5550    55.4495 CH3           1 RES     
     142 CH2         25.1815    20.0415    76.8854 CH2           1 RES     
     143 OE          24.6378    19.5015    75.6375 OE            1 RES     
     144 C           25.9251    19.0326    75.0267 C             1 RES     
     145 O           27.0296    19.1465    75.5560 O             1 RES     
     146 CH2         25.5421    18.6716    73.7238 CH2           1 RES     
     147 CH2         26.8927    18.3249    73.0701 CH2           1 RES     
     148 CH2         26.6851    18.0691    71.5658 CH2           1 RES     
     149 CH2         28.0357    17.7225    70.9120 CH2           1 RES     
     150 CH2         27.8280    17.4667    69.4077 CH2           1 RES     
     151 CH2         29.1786    17.1200    68.7540 CH2           1 RES     
     152 CH2         28.9710    16.8643    67.2496 CH2           1 RES     
     153 CH2         30.3215    16.5176    66.5959 CH2           1 RES     
     154 CH2         30.1139    16.2619    65.0915 CH2           1 RES     
     155 CH2         31.4645    15.9152    64.4378 CH2           1 RES     
     156 CH2         31.2568    15.6595    62.9334 CH2           1 RES     
     157 CH2         32.6074    15.3128    62.2797 CH2           1 RES     
     158 CH2         32.3998    15.0571    60.7754 CH2           1 RES     
     159 CH2         33.7504    14.7104    60.1217 CH2           1 RES     
     160 CH2         33.5427    14.4546    58.6173 CH2           1 RES     
     161 CH2         34.8933    14.1080    57.9636 CH2           1 RES     
     162 CH3         34.6951    13.8638    56.5276 CH3           1 RES     
     163 CH3         32.6014    26.4821    83.9290 CH3           1 RES     
     164 CH3         30.2595    26.2623    83.9317 CH3           1 RES     
     165 CH3         31.2669    27.6581    85.2807 CH3           1 RES     
     166 NL          31.3107    27.0752    84.0937 NL            1 RES     
     167 CH2         31.2176    28.1626    83.2291 CH2           1 RES     
     168 CH2         31.2708    27.4517    81.8640 CH2           1 RES     
     169 OA          31.1838    28.4594    80.7767 OA            1 RES     
     170 P           29.6383    28.6702    80.4204 P             1 RES     
     171 OM          29.0843    27.2584    79.9108 OM            1 RES     
     172 OM          28.9298    29.2233    81.7441 OM            1 RES     
     173 OA          29.5029    29.7521    79.2495 OA            1 RES     
     174 CH2         28.0591    29.9217    78.9461 CH2           1 RES     
     175 CH1         27.8425    30.2552    77.6474 CH1           1 RES     
     176 OE          27.1859    28.9416    77.5821 OE            1 RES     
     177 C           27.0477    28.1238    76.3323 C             1 RES     
     178 O           26.9784    26.8960    76.3072 O             1 RES     
     179 CH2         27.2273    29.0742    75.3129 CH2           1 RES     
     180 CH2         27.2205    28.1996    74.0454 CH2           1 RES     
     181 CH2         27.5835    29.0631    72.8230 CH2           1 RES     
     182 CH2         27.5767    28.1885    71.5555 CH2           1 RES     
     183 CH2         27.9397    29.0520    70.3332 CH2           1 RES     
     184 CH2         27.9329    28.1774    69.0656 CH2           1 RES     
     185 CH2         28.2960    29.0409    67.8433 CH2           1 RES     
     186 CH2         28.2892    28.1663    66.5758 CH2           1 RES     
     187 CH2         28.6522    29.0298    65.3534 CH2           1 RES     
     188 CH2         28.6454    28.1552    64.0859 CH2           1 RES     
     189 CH2         29.0085    29.0188    62.8635 CH2           1 RES     
     190 CH2         29.0016    28.1442    61.5960 CH2           1 RES     
     191 CH2         29.3647    29.0077    60.3737 CH2           1 RES     
     192 CH2         29.3579    28.1331    59.1061 CH2           1 RES     
     193 CH2         29.7209    28.9966    57.8838 CH2           1 RES     
     194 CH2         29.7141    28.1220    56.6162 CH2           1 RES     
     195 CH3         30.0607    28.9463    55.4495 CH3           1 RES     
     196 CH2         29.1796    30.1992    76.8854 CH2           1 RES     
     197 OE          28.8676    29.4993    75.6375 OE            1 RES     
     198 C           30.2374    29.5269    75.0267 C             1 RES     
     199 O           31.2261    30.0320    75.5560 O             1 RES     
     200 CH2         30.0106    29.0519    73.7238 CH2           1 RES     
     201 CH2         31.3952    29.2163    73.0701 CH2           1 RES     
     202 CH2         31.2939    28.9029    71.5658 CH2           1 RES     
     203 CH2         32.6786    29.0673    70.9120 CH2           1 RES     
     204 CH2         32.5773    28.7538    69.4077 CH2           1 RES     
     205 CH2         33.9619    28.9182    68.7540 CH2           1 RES     
     206 CH2         33.8607    28.6048    67.2496 CH2           1 RES     
     207 CH2         35.2453    28.7692    66.5959 CH2           1 RES     
     208 CH2         35.1440    28.4557    65.0915 CH2           1 RES     
     209 CH2         36.5286    28.6202    64.4378 CH2           1 RES     
     210 CH2         36.4274    28.3067    62.9334 CH2           1 RES     
     211 CH2         37.8120    28.4711    62.2797 CH2           1 RES     
     212 CH2         37.7107    28.1577    60.7754 CH2           1 RES     
     213 CH2         39.0954    28.3221    60.1217 CH2           1 RES     
     214 CH2         38.9941    28.0086    58.6173 CH2           1 RES     
     215 CH2         40.3787    28.1730    57.9636 CH2           1 RES     
     216 CH3         40.2820    27.8738    56.5276 CH3           1 RES     
     217 CH3         43.7440    32.0533    83.9290 CH3           1 RES     
     218 CH3         41.4549    32.5947    83.9317 CH3           1 RES     
     219 CH3         42.8560    33.5946    85.2807 CH3           1 RES     
     220 NL          42.7110    33.0284    84.0937 NL            1 RES     
     221 CH2         42.9708    34.0883    83.2291 CH2           1 RES     
     222 CH2         42.7937    33.3978    81.8640 CH2           1 RES     
     223 OA          43.0338    34.3803    80.7767 OA            1 RES     
     224 P           41.6370    35.0748    80.4204 P             1 RES     
     225 OM          40.6603    33.9145    79.9108 OM            1 RES     
     226 OM          41.1429    35.8255    81.7441 OM            1 RES     
     227 OA          41.8550    36.1431    79.2495 OA            1 RES     
     228 CH2         40.5415    36.7658    78.9461 CH2           1 RES     
     229 CH1         40.4430    37.1511    77.6474 CH1           1 RES     
     230 OE          39.4005    36.1168    77.5821 OE            1 RES     
     231 C           39.0078    35.3862    76.3323 C             1 RES     
     232 O           38.5492    34.2452    76.3072 O             1 RES     
     233 CH2         39.4821    36.2292    75.3129 CH2           1 RES     
     234 CH2         39.1957    35.4028    74.0454 CH2           1 RES     
     235 CH2         39.8161    36.1046    72.8230 CH2           1 RES     
     236 CH2         39.5297    35.2782    71.5555 CH2           1 RES     
     237 CH2         40.1500    35.9801    70.3332 CH2           1 RES     
     238 CH2         39.8637    35.1537    69.0656 CH2           1 RES     
     239 CH2         40.4840    35.8556    67.8433 CH2           1 RES     
     240 CH2         40.1976    35.0292    66.5758 CH2           1 RES     
     241 CH2         40.8179    35.7311    65.3534 CH2           1 RES     
     242 CH2         40.5316    34.9047    64.0859 CH2           1 RES     
     243 CH2         41.1519    35.6066    62.8635 CH2           1 RES     
     244 CH2         40.8655    34.7802    61.5960 CH2           1 RES     
     245 CH2         41.4858    35.4820    60.3737 CH2           1 RES     
     246 CH2         41.1995    34.6556    59.1061 CH2           1 RES     
     247 CH2         41.8198    35.3575    57.8838 CH2           1 RES     
     248 CH2         41.5334    34.5311    56.6162 CH2           1 RES     
     249 CH3         42.1255    35.2011    55.4495 CH3           1 RES     
     250 CH2         41.6918    36.6701    76.8854 CH2           1 RES     
     251 OE          41.1722    36.1069    75.6375 OE            1 RES     
     252 C           42.4788    35.6946    75.0267 C             1 RES     
     253 O           43.5772    35.8567    75.5560 O             1 RES     
     254 CH2         42.1119    35.3172    73.7238 CH2           1 RES     
     255 CH2         43.4763    35.0298    73.0701 CH2           1 RES     
     256 CH2         43.2800    34.7653    71.5658 CH2           1 RES     
     257 CH2         44.6445    34.4779    70.9120 CH2           1 RES     
     258 CH2         44.4482    34.2133    69.4077 CH2           1 RES     
     259 CH2         45.8126    33.9259    68.7540 CH2           1 RES     
     260 CH2         45.6163    33.6614    67.2496 CH2           1 RES     
     261 CH2         46.9808    33.3740    66.5959 CH2           1 RES     
     262 CH2         46.7845    33.1094    65.0915 CH2           1 RES     
     263 CH2         48.1489    32.8220    64.4378 CH2           1 RES     
     264 CH2         47.9526    32.5574    62.9334 CH2           1 RES     
     265 CH2         49.3171    32.2700    62.2797 CH2           1 RES     
     266 CH2         49.1208    32.0055    60.7754 CH2           1 RES     
     267 CH2         50.4852    31.7181    60.1217 CH2           1 RES     
     268 CH2         50.2889    31.4535    58.6173 CH2           1 RES     
     269 CH2         51.6533    31.1661    57.9636 CH2           1 RES     
     270 CH3         51.4660    30.9136    56.5276 CH3           1 RES     
     271 CH3         10.3164    32.0533    83.9290 CH3           1 RES     
     272 CH3          8.0165    31.5597    83.9317 CH3           1 RES     
     273 CH3          8.8528    33.0643    85.2807 CH3           1 RES     
     274 NL           8.9649    32.4906    84.0937 NL            1 RES     
     275 CH2          8.7445    33.5594    83.2291 CH2           1 RES     
     276 CH2          8.8810    32.8598    81.8640 CH2           1 RES     
     277 OA           8.6761    33.8502    80.7767 OA            1 RES     
     278 P            7.1165    33.8778    80.4204 P             1 RES     
     279 OM           6.7324    32.4106    79.9108 OM            1 RES     
     280 OM           6.3479    34.3438    81.7441 OM            1 RES     
     281 OA           6.8548    34.9363    79.2495 OA            1 RES     
     282 CH2          5.4011    34.9349    78.9461 CH2           1 RES     
     283 CH1          5.1467    35.2406    77.6474 CH1           1 RES     
     284 OE           4.6492    33.8589    77.5821 OE            1 RES     
     285 C            4.6081    33.0306    76.3323 C             1 RES     
     286 O            4.6837    31.8031    76.3072 O             1 RES     
     287 CH2          4.6747    33.9955    75.3129 CH2           1 RES     
     288 CH2          4.7708    33.1261    74.0454 CH2           1 RES     
     289 CH2          5.0298    34.0264    72.8230 CH2           1 RES     
     290 CH2          5.1258    33.1570    71.5555 CH2           1 RES     
     291 CH2          5.3848    34.0572    70.3332 CH2           1 RES     
     292 CH2          5.4809    33.1879    69.0656 CH2           1 RES     
     293 CH2          5.7399    34.0881    67.8433 CH2           1 RES     
     294 CH2          5.8360    33.2188    66.5758 CH2           1 RES     
     295 CH2          6.0950    34.1190    65.3534 CH2           1 RES     
     296 CH2          6.1911    33.2497    64.0859 CH2           1 RES     
     297 CH2          6.4500    34.1499    62.8635 CH2           1 RES     
     298 CH2          6.5461    33.2806    61.5960 CH2           1 RES     
     299 CH2          6.8051    34.1808    60.3737 CH2           1 RES     
     300 CH2          6.9012    33.3114    59.1061 CH2           1 RES     
     301 CH2          7.1602    34.2117    57.8838 CH2           1 RES     
     302 CH2          7.2563    33.3423    56.6162 CH2           1 RES     
     303 CH3          7.5035    34.2016    55.4495 CH3           1 RES     
     304 CH2          6.4811    35.3422    76.8854 CH2           1 RES     
     305 OE           6.2537    34.6105    75.6375 OE            1 RES     
     306 C            7.6107    34.7990    75.0267 C             1 RES     
     307 O            8.5332    35.4168    75.5560 O             1 RES     
     308 CH2          7.4413    34.3007    73.7238 CH2           1 RES     
     309 CH2          8.7970    34.6268    73.0701 CH2           1 RES     
     310 CH2          8.7333    34.3036    71.5658 CH2           1 RES     
     311 CH2         10.0890    34.6297    70.9120 CH2           1 RES     
     312 CH2         10.0253    34.3065    69.4077 CH2           1 RES     
     313 CH2         11.3810    34.6326    68.7540 CH2           1 RES     
     314 CH2         11.3172    34.3094    67.2496 CH2           1 RES     
     315 CH2         12.6729    34.6355    66.5959 CH2           1 RES     
     316 CH2         12.6092    34.3123    65.0915 CH2           1 RES     
     317 CH2         13.9649    34.6384    64.4378 CH2           1 RES     
     318 CH2         13.9012    34.3152    62.9334 CH2           1 RES     
     319 CH2         15.2569    34.6413    62.2797 CH2           1 RES     
     320 CH2         15.1932    34.3181    60.7754 CH2           1 RES     
     321 CH2         16.5489    34.6442    60.1217 CH2           1 RES     
     322 CH2         16.4852    34.3211    58.6173 CH2           1 RES     
     323 CH2         17.8409    34.6472    57.9636 CH2           1 RES     
     324 CH3         17.7800    34.3387    56.5276 CH3           1 RES     
     325 CH3         21.4589    15.3395    83.9290 CH3           1 RES     
     326 CH3         19.1118    15.1836    83.9317 CH3           1 RES     
     327 CH3         20.1569    16.5514    85.2807 CH3           1 RES     
     328 NL          20.1848    15.9676    84.0937 NL            1 RES     
     329 CH2         20.1213    17.0571    83.2291 CH2           1 RES     
     330 CH2         20.1551    16.3450    81.8640 CH2           1 RES     
     331 OA          20.0956    17.3547    80.7767 OA            1 RES     
     332 P           18.5564    17.6075    80.4204 P             1 RES     
     333 OM          17.9642    16.2112    79.9108 OM            1 RES     
     334 OM          17.8632    18.1796    81.7441 OM            1 RES     
     335 OA          18.4505    18.6926    79.2495 OA            1 RES     
     336 CH2         17.0119    18.9014    78.9461 CH2           1 RES     
     337 CH1         16.8043    19.2407    77.6474 CH1           1 RES     
     338 OE          16.1123    17.9455    77.5821 OE            1 RES     
     339 C           15.9519    17.1317    76.3323 C             1 RES     
     340 O           15.8492    15.9063    76.3072 O             1 RES     
     341 CH2         16.1572    18.0769    75.3129 CH2           1 RES     
     342 CH2         16.1266    17.2028    74.0454 CH2           1 RES     
     343 CH2         16.5130    18.0561    72.8230 CH2           1 RES     
     344 CH2         16.4824    17.1820    71.5555 CH2           1 RES     
     345 CH2         16.8689    18.0353    70.3332 CH2           1 RES     
     346 CH2         16.8382    17.1612    69.0656 CH2           1 RES     
     347 CH2         17.2247    18.0146    67.8433 CH2           1 RES     
     348 CH2         17.1941    17.1405    66.5758 CH2           1 RES     
     349 CH2         17.5805    17.9938    65.3534 CH2           1 RES     
     350 CH2         17.5499    17.1197    64.0859 CH2           1 RES     
     351 CH2         17.9363    17.9730    62.8635 CH2           1 RES     
     352 CH2         17.9057    17.0989    61.5960 CH2           1 RES     
     353 CH2         18.2921    17.9523    60.3737 CH2           1 RES     
     354 CH2         18.2615    17.0782    59.1061 CH2           1 RES     
     355 CH2         18.6479    17.9315    57.8838 CH2           1 RES     
     356 CH2         18.6173    17.0574    56.6162 CH2           1 RES     
     357 CH3         18.9861    17.8719    55.4495 CH3           1 RES     
     358 CH2         18.1394    19.1484    76.8854 CH2           1 RES     
     359 OE          17.8085    18.4572    75.6375 OE            1 RES     
     360 C           19.1785    18.4475    75.0267 C             1 RES     
     361 O           20.1807    18.9255    75.5560 O             1 RES     
     362 CH2         18.9389    17.9789    73.7238 CH2           1 RES     
     363 CH2         20.3275    18.1056    73.0701 CH2           1 RES     
     364 CH2         20.2177    17.7950    71.5658 CH2           1 RES     
     365 CH2         21.6063    17.9217    70.9120 CH2           1 RES     
     366 CH2         21.4966    17.6111    69.4077 CH2           1 RES     
     367 CH2         22.8852    17.7378    68.7540 CH2           1 RES     
     368 CH2         22.7754    17.4272    67.2496 CH2           1 RES     
     369 CH2         24.1640    17.5539    66.5959 CH2           1 RES     
     370 CH2         24.0542    17.2433    65.0915 CH2           1 RES     
     371 CH2         25.4428    17.3700    64.4378 CH2           1 RES     
     372 CH2         25.3331    17.0594    62.9334 CH2           1 RES     
     373 CH2         26.7217    17.1861    62.2797 CH2           1 RES     
     374 CH2         26.6119    16.8756    60.7754 CH2           1 RES     
     375 CH2         28.0005    17.0022    60.1217 CH2           1 RES     
     376 CH2         27.8907    16.6917    58.6173 CH2           1 RES     
     377 CH2         29.2793    16.8184    57.9636 CH2           1 RES     
     378 CH3         29.1745    16.5219    56.5276 CH3           1 RES     
     379 CH3         32.6014    43.1958    83.9290 CH3           1 RES     
     380 CH3         30.2872    42.7749    83.9317 CH3           1 RES     
     381 CH3         31.1704    44.2524    85.2807 CH3           1 RES     
     382 NL          31.2644    43.6755    84.0937 NL            1 RES     
     383 CH2         31.0778    44.7507    83.2291 CH2           1 RES     
     384 CH2         31.1921    44.0471    81.8640 CH2           1 RES     
     385 OA          31.0185    45.0435    80.7767 OA            1 RES     
     386 P           29.4606    45.1202    80.4204 P             1 RES     
     387 OM          29.0304    43.6658    79.9108 OM            1 RES     
     388 OM          28.7071    45.6101    81.7441 OM            1 RES     
     389 OA          29.2324    46.1864    79.2495 OA            1 RES     
     390 CH2         27.7794    46.2308    78.9461 CH2           1 RES     
     391 CH1         27.5347    46.5444    77.6474 CH1           1 RES     
     392 OE          26.9939    45.1791    77.5821 OE            1 RES     
     393 C           26.9268    44.3524    76.3323 C             1 RES     
     394 O           26.9636    43.1232    76.3072 O             1 RES     
     395 CH2         27.0237    45.3147    75.3129 CH2           1 RES     
     396 CH2         27.0924    44.4428    74.0454 CH2           1 RES     
     397 CH2         27.3796    45.3344    72.8230 CH2           1 RES     
     398 CH2         27.4482    44.4625    71.5555 CH2           1 RES     
     399 CH2         27.7354    45.3541    70.3332 CH2           1 RES     
     400 CH2         27.8041    44.4822    69.0656 CH2           1 RES     
     401 CH2         28.0913    45.3738    67.8433 CH2           1 RES     
     402 CH2         28.1600    44.5018    66.5758 CH2           1 RES     
     403 CH2         28.4472    45.3935    65.3534 CH2           1 RES     
     404 CH2         28.5158    44.5215    64.0859 CH2           1 RES     
     405 CH2         28.8030    45.4131    62.8635 CH2           1 RES     
     406 CH2         28.8717    44.5412    61.5960 CH2           1 RES     
     407 CH2         29.1589    45.4328    60.3737 CH2           1 RES     
     408 CH2         29.2276    44.5609    59.1061 CH2           1 RES     
     409 CH2         29.5148    45.4525    57.8838 CH2           1 RES     
     410 CH2         29.5834    44.5806    56.6162 CH2           1 RES     
     411 CH3         29.8576    45.4317    55.4495 CH3           1 RES     
     412 CH2         28.8717    46.6039    76.8854 CH2           1 RES     
     413 OE          28.6212    45.8797    75.6375 OE            1 RES     
     414 C           29.9835    46.0254    75.0267 C             1 RES     
     415 O           30.9250    46.6139    75.5560 O             1 RES     
     416 CH2         29.7986    45.5326    73.7238 CH2           1 RES     
     417 CH2         31.1638    45.8159    73.0701 CH2           1 RES     
     418 CH2         31.0900    45.4948    71.5658 CH2           1 RES     
     419 CH2         32.4553    45.7781    70.9120 CH2           1 RES     
     420 CH2         32.3814    45.4571    69.4077 CH2           1 RES     
     421 CH2         33.7467    45.7403    68.7540 CH2           1 RES     
     422 CH2         33.6728    45.4193    67.2496 CH2           1 RES     
     423 CH2         35.0381    45.7025    66.5959 CH2           1 RES     
     424 CH2         34.9643    45.3815    65.0915 CH2           1 RES     
     425 CH2         36.3296    45.6648    64.4378 CH2           1 RES     
     426 CH2         36.2557    45.3437    62.9334 CH2           1 RES     
     427 CH2         37.6210    45.6270    62.2797 CH2           1 RES     
     428 CH2         37.5471    45.3059    60.7754 CH2           1 RES     
     429 CH2         38.9124    45.5892    60.1217 CH2           1 RES     
     430 CH2         38.8386    45.2682    58.6173 CH2           1 RES     
     431 CH2         40.2039    45.5514    57.9636 CH2           1 RES     
     432 CH3         40.1333    45.2450    56.5276 CH3           1 RES     
     433 CH3         15.8876    37.6246    83.9290 CH3           1 RES     
     434 CH3         13.6065    38.1985    83.9317 CH3           1 RES     
     435 CH3         15.0218    39.1784    85.2807 CH3           1 RES     
     436 NL          14.8687    38.6143    84.0937 NL            1 RES     
     437 CH2         15.1436    39.6704    83.2291 CH2           1 RES     
     438 CH2         14.9566    38.9825    81.8640 CH2           1 RES     
     439 OA          15.2107    39.9615    80.7767 OA            1 RES     
     440 P           13.8240    40.6757    80.4204 P             1 RES     
     441 OM          12.8308    39.5295    79.9108 OM            1 RES     
     442 OM          13.3406    41.4334    81.7441 OM            1 RES     
     443 OA          14.0572    41.7408    79.2495 OA            1 RES     
     444 CH2         12.7527    42.3822    78.9461 CH2           1 RES     
     445 CH1         12.6596    42.7689    77.6474 CH1           1 RES     
     446 OE          11.6025    41.7495    77.5821 OE            1 RES     
     447 C           11.1995    41.0246    76.3323 C             1 RES     
     448 O           10.7246    39.8903    76.3072 O             1 RES     
     449 CH2         11.6858    41.8607    75.3129 CH2           1 RES     
     450 CH2         11.3876    41.0385    74.0454 CH2           1 RES     
     451 CH2         12.0179    41.7314    72.8230 CH2           1 RES     
     452 CH2         11.7198    40.9092    71.5555 CH2           1 RES     
     453 CH2         12.3500    41.6022    70.3332 CH2           1 RES     
     454 CH2         12.0519    40.7799    69.0656 CH2           1 RES     
     455 CH2         12.6822    41.4729    67.8433 CH2           1 RES     
     456 CH2         12.3841    40.6507    66.5758 CH2           1 RES     
     457 CH2         13.0143    41.3437    65.3534 CH2           1 RES     
     458 CH2         12.7162    40.5214    64.0859 CH2           1 RES     
     459 CH2         13.3465    41.2144    62.8635 CH2           1 RES     
     460 CH2         13.0483    40.3921    61.5960 CH2           1 RES     
     461 CH2         13.6786    41.0851    60.3737 CH2           1 RES     
     462 CH2         13.3805    40.2629    59.1061 CH2           1 RES     
     463 CH2         14.0108    40.9559    57.8838 CH2           1 RES     
     464 CH2         13.7126    40.1336    56.6162 CH2           1 RES     
     465 CH3         14.3143    40.7951    55.4495 CH3           1 RES     
     466 CH2         13.9015    42.2702    76.8854 CH2           1 RES     
     467 OE          13.3739    41.7144    75.6375 OE            1 RES     
     468 C           14.6745    41.2835    75.0267 C             1 RES     
     469 O           15.7751    41.4299    75.5560 O             1 RES     
     470 CH2         14.3023    40.9114    73.7238 CH2           1 RES     
     471 CH2         15.6625    40.6046    73.0701 CH2           1 RES     
     472 CH2         15.4624    40.3429    71.5658 CH2           1 RES     
     473 CH2         16.8226    40.0360    70.9120 CH2           1 RES     
     474 CH2         16.6226    39.7743    69.4077 CH2           1 RES     
     475 CH2         17.9828    39.4675    68.7540 CH2           1 RES     
     476 CH2         17.7828    39.2058    67.2496 CH2           1 RES     
     477 CH2         19.1429    38.8990    66.5959 CH2           1 RES     
     478 CH2         18.9429    38.6372    65.0915 CH2           1 RES     
     479 CH2         20.3031    38.3304    64.4378 CH2           1 RES     
     480 CH2         20.1031    38.0687    62.9334 CH2           1 RES     
     481 CH2         21.4633    37.7619    62.2797 CH2           1 RES     
     482 CH2         21.2632    37.5002    60.7754 CH2           1 RES     
     483 CH2         22.6234    37.1933    60.1217 CH2           1 RES     
     484 CH2         22.4234    36.9316    58.6173 CH2           1 RES     
     485 CH2         23.7836    36.6248    57.9636 CH2           1 RES     
     486 CH3         23.5927    36.3750    56.5276 CH3           1 RES     
     487 CH3         38.1727    37.6246    83.9290 CH3           1 RES     
     488 CH3         35.9301    36.9149    83.9317 CH3           1 RES     
     489 CH3         36.6198    38.4920    85.2807 CH3           1 RES     
     490 NL          36.7858    37.9316    84.0937 NL            1 RES     
     491 CH2         36.4650    38.9747    83.2291 CH2           1 RES     
     492 CH2         36.6672    38.2911    81.8640 CH2           1 RES     
     493 OA          36.3692    39.2576    80.7767 OA            1 RES     
     494 P           34.8141    39.1371    80.4204 P             1 RES     
     495 OM          34.5709    37.6400    79.9108 OM            1 RES     
     496 OM          34.0047    39.5280    81.7441 OM            1 RES     
     497 OA          34.4531    40.1659    79.2495 OA            1 RES     
     498 CH2         33.0061    40.0266    78.9461 CH2           1 RES     
     499 CH1         32.7238    40.3068    77.6474 CH1           1 RES     
     500 OE          32.3597    38.8841    77.5821 OE            1 RES     
     501 C           32.3974    38.0555    76.3323 C             1 RES     
     502 O           32.5892    36.8408    76.3072 O             1 RES     
     503 CH2         32.3721    39.0224    75.3129 CH2           1 RES     
     504 CH2         32.5503    38.1661    74.0454 CH2           1 RES     
     505 CH2         32.7226    39.0869    72.8230 CH2           1 RES     
     506 CH2         32.9008    38.2306    71.5555 CH2           1 RES     
     507 CH2         33.0732    39.1513    70.3332 CH2           1 RES     
     508 CH2         33.2513    38.2950    69.0656 CH2           1 RES     
     509 CH2         33.4237    39.2158    67.8433 CH2           1 RES     
     510 CH2         33.6019    38.3595    66.5758 CH2           1 RES     
     511 CH2         33.7742    39.2802    65.3534 CH2           1 RES     
     512 CH2         33.9524    38.4239    64.0859 CH2           1 RES     
     513 CH2         34.1248    39.3447    62.8635 CH2           1 RES     
     514 CH2         34.3030    38.4884    61.5960 CH2           1 RES     
     515 CH2         34.4753    39.4091    60.3737 CH2           1 RES     
     516 CH2         34.6535    38.5528    59.1061 CH2           1 RES     
     517 CH2         34.8259    39.4736    57.8838 CH2           1 RES     
     518 CH2         35.0040    38.6173    56.6162 CH2           1 RES     
     519 CH3         35.1686    39.4962    55.4495 CH3           1 RES     
     520 CH2         34.0425    40.5346    76.8854 CH2           1 RES     
     521 OE          33.8856    39.7846    75.6375 OE            1 RES     
     522 C           35.2186    40.1010    75.0267 C             1 RES     
     523 O           36.0782    40.8036    75.5560 O             1 RES     
     524 CH2         35.0973    39.5888    73.7238 CH2           1 RES     
     525 CH2         36.4159    40.0422    73.0701 CH2           1 RES     
     526 CH2         36.3831    39.7144    71.5658 CH2           1 RES     
     527 CH2         37.7017    40.1677    70.9120 CH2           1 RES     
     528 CH2         37.6690    39.8399    69.4077 CH2           1 RES     
     529 CH2         38.9876    40.2933    68.7540 CH2           1 RES     
     530 CH2         38.9549    39.9655    67.2496 CH2           1 RES     
     531 CH2         40.2735    40.4188    66.5959 CH2           1 RES     
     532 CH2         40.2407    40.0910    65.0915 CH2           1 RES     
     533 CH2         41.5593    40.5443    64.4378 CH2           1 RES     
     534 CH2         41.5266    40.2166    62.9334 CH2           1 RES     
     535 CH2         42.8452    40.6699    62.2797 CH2           1 RES     
     536 CH2         42.8125    40.3421    60.7754 CH2           1 RES     
     537 CH2         44.1311    40.7954    60.1217 CH2           1 RES     
     538 CH2         44.0983    40.4677    58.6173 CH2           1 RES     
     539 CH2         45.4170    40.9210    57.9636 CH2           1 RES     
     540 CH3         45.3857    40.6081    56.5276 CH3           1 RES     
     541 CH3         10.3164    15.3395    83.9290 CH3           1 RES     
     542 CH3          8.0934    16.1084    83.9317 CH3           1 RES     
     543 CH3          9.5880    16.9623    85.2807 CH3           1 RES     
     544 NL           9.3867    16.4136    84.0937 NL            1 RES     
     545 CH2          9.7518    17.4420    83.2291 CH2           1 RES     
     546 CH2          9.5062    16.7728    81.8640 CH2           1 RES     
     547 OA           9.8439    17.7262    80.7767 OA            1 RES     
     548 P            8.5241    18.5576    80.4204 P             1 RES     
     549 OM           7.4356    17.5014    79.9108 OM            1 RES     
     550 OM           8.1079    19.3542    81.7441 OM            1 RES     
     551 OA           8.8484    19.5985    79.2495 OA            1 RES     
     552 CH2          7.6042    20.3502    78.9461 CH2           1 RES     
     553 CH1          7.5449    20.7435    77.6474 CH1           1 RES     
     554 OE           6.4037    19.8193    77.5821 OE            1 RES     
     555 C            5.9395    19.1319    76.3323 C             1 RES     
     556 O            5.3684    18.0428    76.3072 O             1 RES     
     557 CH2          6.4962    19.9229    75.3129 CH2           1 RES     
     558 CH2          6.1281    19.1295    74.0454 CH2           1 RES     
     559 CH2          6.8159    19.7654    72.8230 CH2           1 RES     
     560 CH2          6.4479    18.9720    71.5555 CH2           1 RES     
     561 CH2          7.1357    19.6079    70.3332 CH2           1 RES     
     562 CH2          6.7676    18.8145    69.0656 CH2           1 RES     
     563 CH2          7.4554    19.4504    67.8433 CH2           1 RES     
     564 CH2          7.0873    18.6570    66.5758 CH2           1 RES     
     565 CH2          7.7751    19.2930    65.3534 CH2           1 RES     
     566 CH2          7.4071    18.4995    64.0859 CH2           1 RES     
     567 CH2          8.0949    19.1355    62.8635 CH2           1 RES     
     568 CH2          7.7268    18.3421    61.5960 CH2           1 RES     
     569 CH2          8.4146    18.9780    60.3737 CH2           1 RES     
     570 CH2          8.0465    18.1846    59.1061 CH2           1 RES     
     571 CH2          8.7343    18.8205    57.8838 CH2           1 RES     
     572 CH2          8.3663    18.0271    56.6162 CH2           1 RES     
     573 CH3          9.0228    18.6341    55.4495 CH3           1 RES     
     574 CH2          8.7390    20.1393    76.8854 CH2           1 RES     
     575 OE           8.1654    19.6312    75.6375 OE            1 RES     
     576 C            9.4239    19.0896    75.0267 C             1 RES     
     577 O           10.5330    19.1404    75.5560 O             1 RES     
     578 CH2          9.0209    18.7510    73.7238 CH2           1 RES     
     579 CH2         10.3495    18.3279    73.0701 CH2           1 RES     
     580 CH2         10.1276    18.0844    71.5658 CH2           1 RES     
     581 CH2         11.4562    17.6612    70.9120 CH2           1 RES     
     582 CH2         11.2343    17.4177    69.4077 CH2           1 RES     
     583 CH2         12.5629    16.9946    68.7540 CH2           1 RES     
     584 CH2         12.3410    16.7511    67.2496 CH2           1 RES     
     585 CH2         13.6696    16.3279    66.5959 CH2           1 RES     
     586 CH2         13.4477    16.0844    65.0915 CH2           1 RES     
     587 CH2         14.7763    15.6613    64.4378 CH2           1 RES     
     588 CH2         14.5544    15.4178    62.9334 CH2           1 RES     
     589 CH2         15.8830    14.9946    62.2797 CH2           1 RES     
     590 CH2         15.6611    14.7511    60.7754 CH2           1 RES     
     591 CH2         16.9897    14.3280    60.1217 CH2           1 RES     
     592 CH2         16.7678    14.0845    58.6173 CH2           1 RES     
     593 CH2         18.0964    13.6613    57.9636 CH2           1 RES     
     594 CH3         17.8846    13.4289    56.5276 CH3           1 RES     
     595 CH3         49.3152     4.1970    83.9290 CH3           1 RES     
     596 CH3         46.9636     4.2506    83.9317 CH3           1 RES     
     597 CH3         48.1263     5.5200    85.2807 CH3           1 RES     
     598 NL          48.1021     4.9360    84.0937 NL            1 RES     
     599 CH2         48.1358     6.0268    83.2291 CH2           1 RES     
     600 CH2         48.1061     5.3146    81.8640 CH2           1 RES     
     601 OA          48.1367     6.3255    80.7767 OA            1 RES     
     602 P           46.6261     6.7144    80.4204 P             1 RES     
     603 OM          45.9120     5.3764    79.9108 OM            1 RES     
     604 OM          45.9867     7.3460    81.7441 OM            1 RES     
     605 OA          46.6172     7.8047    79.2495 OA            1 RES     
     606 CH2         45.2029     8.1407    78.9461 CH2           1 RES     
     607 CH1         45.0265     8.4971    77.6474 CH1           1 RES     
     608 OE          44.2218     7.2686    77.5821 OE            1 RES     
     609 C           43.9896     6.4724    76.3323 C             1 RES     
     610 O           43.7782     5.2609    76.3072 O             1 RES     
     611 CH2         44.2783     7.3955    75.3129 CH2           1 RES     
     612 CH2         44.1700     6.5276    74.0454 CH2           1 RES     
     613 CH2         44.6309     7.3431    72.8230 CH2           1 RES     
     614 CH2         44.5225     6.4752    71.5555 CH2           1 RES     
     615 CH2         44.9834     7.2908    70.3332 CH2           1 RES     
     616 CH2         44.8751     6.4229    69.0656 CH2           1 RES     
     617 CH2         45.3359     7.2384    67.8433 CH2           1 RES     
     618 CH2         45.2276     6.3705    66.5758 CH2           1 RES     
     619 CH2         45.6885     7.1860    65.3534 CH2           1 RES     
     620 CH2         45.5802     6.3181    64.0859 CH2           1 RES     
     621 CH2         46.0410     7.1337    62.8635 CH2           1 RES     
     622 CH2         45.9327     6.2658    61.5960 CH2           1 RES     
     623 CH2         46.3936     7.0813    60.3737 CH2           1 RES     
     624 CH2         46.2853     6.2134    59.1061 CH2           1 RES     
     625 CH2         46.7461     7.0289    57.8838 CH2           1 RES     
     626 CH2         46.6378     6.1611    56.6162 CH2           1 RES     
     627 CH3         47.0777     6.9395    55.4495 CH3           1 RES     
     628 CH2         46.3480     8.2863    76.8854 CH2           1 RES     
     629 OE          45.9569     7.6273    75.6375 OE            1 RES     
     630 C           47.3206     7.4957    75.0267 C             1 RES     
     631 O           48.3613     7.8826    75.5560 O             1 RES     
     632 CH2         47.0402     7.0503    73.7238 CH2           1 RES     
     633 CH2         48.4346     7.0528    73.0701 CH2           1 RES     
     634 CH2         48.2976     6.7532    71.5658 CH2           1 RES     
     635 CH2         49.6920     6.7558    70.9120 CH2           1 RES     
     636 CH2         49.5550     6.4562    69.4077 CH2           1 RES     
     637 CH2         50.9493     6.4588    68.7540 CH2           1 RES     
     638 CH2         50.8123     6.1592    67.2496 CH2           1 RES     
     639 CH2         52.2067     6.1618    66.5959 CH2           1 RES     
     640 CH2         52.0697     5.8622    65.0915 CH2           1 RES     
     641 CH2         53.4641     5.8647    64.4378 CH2           1 RES     
     642 CH2         53.3271     5.5652    62.9334 CH2           1 RES     
     643 CH2         54.7215     5.5677    62.2797 CH2           1 RES     
     644 CH2         54.5845     5.2682    60.7754 CH2           1 RES     
     645 CH2         55.9788     5.2707    60.1217 CH2           1 RES     
     646 CH2         55.8419     4.9711    58.6173 CH2           1 RES     
     647 CH2         57.2362     4.9737    57.9636 CH2           1 RES     
     648 CH3         57.1055     4.6877    56.5276 CH3           1 RES     
     649 CH3         43.7440    15.3395    83.9290 CH3           1 RES     
     650 CH3         41.3921    15.3845    83.9317 CH3           1 RES     
     651 CH3         42.5502    16.6582    85.2807 CH3           1 RES     
     652 NL          42.5281    16.0741    84.0937 NL            1 RES     
     653 CH2         42.5579    17.1650    83.2291 CH2           1 RES     
     654 CH2         42.5308    16.4527    81.8640 CH2           1 RES     
     655 OA          42.5577    17.4637    80.7767 OA            1 RES     
     656 P           41.0457    17.8470    80.4204 P             1 RES     
     657 OM          40.3364    16.5064    79.9108 OM            1 RES     
     658 OM          40.4039    18.4763    81.7441 OM            1 RES     
     659 OA          41.0328    18.9373    79.2495 OA            1 RES     
     660 CH2         39.6173    19.2681    78.9461 CH2           1 RES     
     661 CH1         39.4395    19.6239    77.6474 CH1           1 RES     
     662 OE          38.6393    18.3925    77.5821 OE            1 RES     
     663 C           38.4101    17.5954    76.3323 C             1 RES     
     664 O           38.2031    16.3832    76.3072 O             1 RES     
     665 CH2         38.6954    18.5196    75.3129 CH2           1 RES     
     666 CH2         38.5902    17.6513    74.0454 CH2           1 RES     
     667 CH2         39.0481    18.4685    72.8230 CH2           1 RES     
     668 CH2         38.9430    17.6002    71.5555 CH2           1 RES     
     669 CH2         39.4008    18.4174    70.3332 CH2           1 RES     
     670 CH2         39.2957    17.5491    69.0656 CH2           1 RES     
     671 CH2         39.7536    18.3663    67.8433 CH2           1 RES     
     672 CH2         39.6484    17.4980    66.5758 CH2           1 RES     
     673 CH2         40.1063    18.3153    65.3534 CH2           1 RES     
     674 CH2         40.0012    17.4470    64.0859 CH2           1 RES     
     675 CH2         40.4590    18.2642    62.8635 CH2           1 RES     
     676 CH2         40.3539    17.3959    61.5960 CH2           1 RES     
     677 CH2         40.8118    18.2131    60.3737 CH2           1 RES     
     678 CH2         40.7066    17.3448    59.1061 CH2           1 RES     
     679 CH2         41.1645    18.1620    57.8838 CH2           1 RES     
     680 CH2         41.0594    17.2938    56.6162 CH2           1 RES     
     681 CH3         41.4964    18.0738    55.4495 CH3           1 RES     
     682 CH2         40.7618    19.4179    76.8854 CH2           1 RES     
     683 OE          40.3731    18.7575    75.6375 OE            1 RES     
     684 C           41.7373    18.6309    75.0267 C             1 RES     
     685 O           42.7766    19.0216    75.5560 O             1 RES     
     686 CH2         41.4585    18.1844    73.7238 CH2           1 RES     
     687 CH2         42.8529    18.1921    73.0701 CH2           1 RES     
     688 CH2         42.7170    17.8920    71.5658 CH2           1 RES     
     689 CH2         44.1113    17.8997    70.9120 CH2           1 RES     
     690 CH2         43.9754    17.5996    69.4077 CH2           1 RES     
     691 CH2         45.3698    17.6073    68.7540 CH2           1 RES     
     692 CH2         45.2339    17.3072    67.2496 CH2           1 RES     
     693 CH2         46.6282    17.3149    66.5959 CH2           1 RES     
     694 CH2         46.4923    17.0148    65.0915 CH2           1 RES     
     695 CH2         47.8867    17.0225    64.4378 CH2           1 RES     
     696 CH2         47.7508    16.7224    62.9334 CH2           1 RES     
     697 CH2         49.1451    16.7300    62.2797 CH2           1 RES     
     698 CH2         49.0093    16.4300    60.7754 CH2           1 RES     
     699 CH2         50.4036    16.4376    60.1217 CH2           1 RES     
     700 CH2         50.2677    16.1376    58.6173 CH2           1 RES     
     701 CH2         51.6621    16.1452    57.9636 CH2           1 RES     
     702 CH3         51.5324    15.8588    56.5276 CH3           1 RES     
     703 CH3         10.3164    26.4821    83.9290 CH3           1 RES     
     704 CH3          7.9644    26.4486    83.9317 CH3           1 RES     
     705 CH3          9.0793    27.7601    85.2807 CH3           1 RES     
     706 NL           9.0767    27.1756    84.0937 NL            1 RES     
     707 CH2          9.0701    28.2669    83.2291 CH2           1 RES     
     708 CH2          9.0668    27.5541    81.8640 CH2           1 RES     
     709 OA           9.0599    28.5655    80.7767 OA            1 RES     
     710 P            7.5360    28.8981    80.4204 P             1 RES     
     711 OM           6.8718    27.5346    79.9108 OM            1 RES     
     712 OM           6.8736    29.5056    81.7441 OM            1 RES     
     713 OA           7.4867    29.9874    79.2495 OA            1 RES     
     714 CH2          6.0609    30.2708    78.9461 CH2           1 RES     
     715 CH1          5.8714    30.6204    77.6474 CH1           1 RES     
     716 OE           5.1128    29.3630    77.5821 OE            1 RES     
     717 C            4.9102    28.5587    76.3323 C             1 RES     
     718 O            4.7438    27.3403    76.3072 O             1 RES     
     719 CH2          5.1645    29.4919    75.3129 CH2           1 RES     
     720 CH2          5.0884    28.6206    74.0454 CH2           1 RES     
     721 CH2          5.5188    29.4526    72.8230 CH2           1 RES     
     722 CH2          5.4427    28.5813    71.5555 CH2           1 RES     
     723 CH2          5.8730    29.4133    70.3332 CH2           1 RES     
     724 CH2          5.7969    28.5420    69.0656 CH2           1 RES     
     725 CH2          6.2273    29.3741    67.8433 CH2           1 RES     
     726 CH2          6.1512    28.5028    66.5758 CH2           1 RES     
     727 CH2          6.5815    29.3348    65.3534 CH2           1 RES     
     728 CH2          6.5054    28.4635    64.0859 CH2           1 RES     
     729 CH2          6.9357    29.2955    62.8635 CH2           1 RES     
     730 CH2          6.8596    28.4242    61.5960 CH2           1 RES     
     731 CH2          7.2900    29.2562    60.3737 CH2           1 RES     
     732 CH2          7.2139    28.3849    59.1061 CH2           1 RES     
     733 CH2          7.6442    29.2169    57.8838 CH2           1 RES     
     734 CH2          7.5681    28.3456    56.6162 CH2           1 RES     
     735 CH3          7.9789    29.1398    55.4495 CH3           1 RES     
     736 CH2          7.1998    30.4586    76.8854 CH2           1 RES     
     737 OE           6.8334    29.7857    75.6375 OE            1 RES     
     738 C            8.2010    29.7046    75.0267 C             1 RES     
     739 O            9.2267    30.1298    75.5560 O             1 RES     
     740 CH2          7.9373    29.2491    73.7238 CH2           1 RES     
     741 CH2          9.3306    29.3033    73.0701 CH2           1 RES     
     742 CH2          9.2048    28.9989    71.5658 CH2           1 RES     
     743 CH2         10.5981    29.0530    70.9120 CH2           1 RES     
     744 CH2         10.4723    28.7486    69.4077 CH2           1 RES     
     745 CH2         11.8657    28.8028    68.7540 CH2           1 RES     
     746 CH2         11.7399    28.4983    67.2496 CH2           1 RES     
     747 CH2         13.1332    28.5525    66.5959 CH2           1 RES     
     748 CH2         13.0074    28.2481    65.0915 CH2           1 RES     
     749 CH2         14.4007    28.3022    64.4378 CH2           1 RES     
     750 CH2         14.2749    27.9978    62.9334 CH2           1 RES     
     751 CH2         15.6682    28.0520    62.2797 CH2           1 RES     
     752 CH2         15.5424    27.7475    60.7754 CH2           1 RES     
     753 CH2         16.9357    27.8017    60.1217 CH2           1 RES     
     754 CH2         16.8099    27.4973    58.6173 CH2           1 RES     
     755 CH2         18.2032    27.5514    57.9636 CH2           1 RES     
     756 CH3         18.0831    27.2608    56.5276 CH3           1 RES     
     757 CH3         32.6014     4.1970    83.9290 CH3           1 RES     
     758 CH3         30.2501     4.1310    83.9317 CH3           1 RES     
     759 CH3         31.3468     5.4579    85.2807 CH3           1 RES     
     760 NL          31.3523     4.8734    84.0937 NL            1 RES     
     761 CH2         31.3306     5.9645    83.2291 CH2           1 RES     
     762 CH2         31.3371     5.2517    81.8640 CH2           1 RES     
     763 OA          31.3163     6.2629    80.7767 OA            1 RES     
     764 P           29.7879     6.5745    80.4204 P             1 RES     
     765 OM          29.1426     5.2019    79.9108 OM            1 RES     
     766 OM          29.1172     7.1727    81.7441 OM            1 RES     
     767 OA          29.7236     7.6629    79.2495 OA            1 RES     
     768 CH2         28.2940     7.9266    78.9461 CH2           1 RES     
     769 CH1         28.0997     8.2736    77.6474 CH1           1 RES     
     770 OE          27.3585     7.0058    77.5821 OE            1 RES     
     771 C           27.1671     6.1988    76.3323 C             1 RES     
     772 O           27.0175     4.9782    76.3072 O             1 RES     
     773 CH2         27.4085     7.1354    75.3129 CH2           1 RES     
     774 CH2         27.3444     6.2631    74.0454 CH2           1 RES     
     775 CH2         27.7632     7.1010    72.8230 CH2           1 RES     
     776 CH2         27.6992     6.2287    71.5555 CH2           1 RES     
     777 CH2         28.1180     7.0666    70.3332 CH2           1 RES     
     778 CH2         28.0539     6.1943    69.0656 CH2           1 RES     
     779 CH2         28.4727     7.0322    67.8433 CH2           1 RES     
     780 CH2         28.4087     6.1600    66.5758 CH2           1 RES     
     781 CH2         28.8275     6.9979    65.3534 CH2           1 RES     
     782 CH2         28.7634     6.1256    64.0859 CH2           1 RES     
     783 CH2         29.1822     6.9635    62.8635 CH2           1 RES     
     784 CH2         29.1182     6.0912    61.5960 CH2           1 RES     
     785 CH2         29.5370     6.9291    60.3737 CH2           1 RES     
     786 CH2         29.4729     6.0568    59.1061 CH2           1 RES     
     787 CH2         29.8917     6.8947    57.8838 CH2           1 RES     
     788 CH2         29.8277     6.0224    56.6162 CH2           1 RES     
     789 CH3         30.2274     6.8223    55.4495 CH3           1 RES     
     790 CH2         29.4302     8.1302    76.8854 CH2           1 RES     
     791 OE          29.0731     7.4522    75.6375 OE            1 RES     
     792 C           30.4418     7.3901    75.0267 C             1 RES     
     793 O           31.4614     7.8293    75.5560 O             1 RES     
     794 CH2         30.1844     6.9310    73.7238 CH2           1 RES     
     795 CH2         31.5768     7.0044    73.0701 CH2           1 RES     
     796 CH2         31.4552     6.6982    71.5658 CH2           1 RES     
     797 CH2         32.8476     6.7716    70.9120 CH2           1 RES     
     798 CH2         32.7261     6.4655    69.4077 CH2           1 RES     
     799 CH2         34.1185     6.5389    68.7540 CH2           1 RES     
     800 CH2         33.9969     6.2328    67.2496 CH2           1 RES     
     801 CH2         35.3893     6.3062    66.5959 CH2           1 RES     
     802 CH2         35.2678     6.0000    65.0915 CH2           1 RES     
     803 CH2         36.6602     6.0734    64.4378 CH2           1 RES     
     804 CH2         36.5386     5.7673    62.9334 CH2           1 RES     
     805 CH2         37.9310     5.8407    62.2797 CH2           1 RES     
     806 CH2         37.8095     5.5346    60.7754 CH2           1 RES     
     807 CH2         39.2019     5.6080    60.1217 CH2           1 RES     
     808 CH2         39.0803     5.3018    58.6173 CH2           1 RES     
     809 CH2         40.4727     5.3753    57.9636 CH2           1 RES     
     810 CH3         40.3567     5.0830    56.5276 CH3           1 RES     
     811 CH3         15.8876    32.0533    83.9290 CH3           1 RES     
     812 CH3         13.7424    33.0182    83.9317 CH3           1 RES     
     813 CH3         15.3075    33.7348    85.2807 CH3           1 RES     
     814 NL          15.0579    33.2063    84.0937 NL            1 RES     
     815 CH2         15.5136    34.1979    83.2291 CH2           1 RES     
     816 CH2         15.2090    33.5534    81.8640 CH2           1 RES     
     817 OA          15.6307    34.4727    80.7767 OA            1 RES     
     818 P           14.3907    35.4189    80.4204 P             1 RES     
     819 OM          13.2119    34.4645    79.9108 OM            1 RES     
     820 OM          14.0475    36.2496    81.7441 OM            1 RES     
     821 OA          14.8069    36.4267    79.2495 OA            1 RES     
     822 CH2         13.6349    37.2867    78.9461 CH2           1 RES     
     823 CH1         13.6111    37.6838    77.6474 CH1           1 RES     
     824 OE          12.3917    36.8654    77.5821 OE            1 RES     
     825 C           11.8679    36.2224    76.3323 C             1 RES     
     826 O           11.2016    35.1888    76.3072 O             1 RES     
     827 CH2         12.4932    36.9603    75.3129 CH2           1 RES     
     828 CH2         12.0556    36.2030    74.0454 CH2           1 RES     
     829 CH2         12.7975    36.7748    72.8230 CH2           1 RES     
     830 CH2         12.3599    36.0175    71.5555 CH2           1 RES     
     831 CH2         13.1019    36.5893    70.3332 CH2           1 RES     
     832 CH2         12.6642    35.8321    69.0656 CH2           1 RES     
     833 CH2         13.4062    36.4039    67.8433 CH2           1 RES     
     834 CH2         12.9686    35.6466    66.5758 CH2           1 RES     
     835 CH2         13.7106    36.2184    65.3534 CH2           1 RES     
     836 CH2         13.2729    35.4611    64.0859 CH2           1 RES     
     837 CH2         14.0149    36.0329    62.8635 CH2           1 RES     
     838 CH2         13.5773    35.2756    61.5960 CH2           1 RES     
     839 CH2         14.3193    35.8474    60.3737 CH2           1 RES     
     840 CH2         13.8816    35.0902    59.1061 CH2           1 RES     
     841 CH2         14.6236    35.6620    57.8838 CH2           1 RES     
     842 CH2         14.1860    34.9047    56.6162 CH2           1 RES     
     843 CH3         14.8942    35.4505    55.4495 CH3           1 RES     
     844 CH2         14.7463    36.9751    76.8854 CH2           1 RES     
     845 OE          14.1296    36.5203    75.6375 OE            1 RES     
     846 C           15.3345    35.8682    75.0267 C             1 RES     
     847 O           16.4437    35.8195    75.5560 O             1 RES     
     848 CH2         14.9028    35.5671    73.7238 CH2           1 RES     
     849 CH2         16.1882    35.0267    73.0701 CH2           1 RES     
     850 CH2         15.9454    34.8040    71.5658 CH2           1 RES     
     851 CH2         17.2308    34.2636    70.9120 CH2           1 RES     
     852 CH2         16.9880    34.0410    69.4077 CH2           1 RES     
     853 CH2         18.2733    33.5006    68.7540 CH2           1 RES     
     854 CH2         18.0305    33.2779    67.2496 CH2           1 RES     
     855 CH2         19.3159    32.7375    66.5959 CH2           1 RES     
     856 CH2         19.0731    32.5149    65.0915 CH2           1 RES     
     857 CH2         20.3585    31.9744    64.4378 CH2           1 RES     
     858 CH2         20.1157    31.7518    62.9334 CH2           1 RES     
     859 CH2         21.4010    31.2114    62.2797 CH2           1 RES     
     860 CH2         21.1582    30.9887    60.7754 CH2           1 RES     
     861 CH2         22.4436    30.4483    60.1217 CH2           1 RES     
     862 CH2         22.2008    30.2257    58.6173 CH2           1 RES     
     863 CH2         23.4862    29.6852    57.9636 CH2           1 RES     
     864 CH3         23.2544    29.4727    56.5276 CH3           1 RES     
     865 CH3         49.3152    32.0533    83.9290 CH3           1 RES     
     866 CH3         47.0527    32.6969    83.9317 CH3           1 RES     
     867 CH3         48.4974    33.6329    85.2807 CH3           1 RES     
     868 NL          48.3270    33.0738    84.0937 NL            1 RES     
     869 CH2         48.6342    34.1210    83.2291 CH2           1 RES     
     870 CH2         48.4262    33.4391    81.8640 CH2           1 RES     
     871 OA          48.7102    34.4098    80.7767 OA            1 RES     
     872 P           47.3460    35.1663    80.4204 P             1 RES     
     873 OM          46.3182    34.0510    79.9108 OM            1 RES     
     874 OM          46.8860    35.9384    81.7441 OM            1 RES     
     875 OA          47.6117    36.2237    79.2495 OA            1 RES     
     876 CH2         46.3274    36.9048    78.9461 CH2           1 RES     
     877 CH1         46.2463    37.2941    77.6474 CH1           1 RES     
     878 OE          45.1585    36.3076    77.5821 OE            1 RES     
     879 C           44.7334    35.5954    76.3323 C             1 RES     
     880 O           44.2240    34.4761    76.3072 O             1 RES     
     881 CH2         45.2451    36.4162    75.3129 CH2           1 RES     
     882 CH2         44.9219    35.6035    74.0454 CH2           1 RES     
     883 CH2         45.5731    36.2768    72.8230 CH2           1 RES     
     884 CH2         45.2499    35.4641    71.5555 CH2           1 RES     
     885 CH2         45.9011    36.1374    70.3332 CH2           1 RES     
     886 CH2         45.5779    35.3247    69.0656 CH2           1 RES     
     887 CH2         46.2292    35.9981    67.8433 CH2           1 RES     
     888 CH2         45.9060    35.1853    66.5758 CH2           1 RES     
     889 CH2         46.5572    35.8587    65.3534 CH2           1 RES     
     890 CH2         46.2340    35.0459    64.0859 CH2           1 RES     
     891 CH2         46.8852    35.7193    62.8635 CH2           1 RES     
     892 CH2         46.5620    34.9066    61.5960 CH2           1 RES     
     893 CH2         47.2132    35.5799    60.3737 CH2           1 RES     
     894 CH2         46.8901    34.7672    59.1061 CH2           1 RES     
     895 CH2         47.5413    35.4405    57.8838 CH2           1 RES     
     896 CH2         47.2181    34.6278    56.6162 CH2           1 RES     
     897 CH3         47.8397    35.2705    55.4495 CH3           1 RES     
     898 CH2         47.4723    36.7576    76.8854 CH2           1 RES     
     899 OE          46.9280    36.2182    75.6375 OE            1 RES     
     900 C           48.2147    35.7477    75.0267 C             1 RES     
     901 O           49.3193    35.8603    75.5560 O             1 RES     
     902 CH2         47.8313    35.3872    73.7238 CH2           1 RES     
     903 CH2         49.1814    35.0388    73.0701 CH2           1 RES     
     904 CH2         48.9735    34.7833    71.5658 CH2           1 RES     
     905 CH2         50.3236    34.4350    70.9120 CH2           1 RES     
     906 CH2         50.1157    34.1795    69.4077 CH2           1 RES     
     907 CH2         51.4658    33.8312    68.7540 CH2           1 RES     
     908 CH2         51.2579    33.5757    67.2496 CH2           1 RES     
     909 CH2         52.6080    33.2274    66.5959 CH2           1 RES     
     910 CH2         52.4001    32.9719    65.0915 CH2           1 RES     
     911 CH2         53.7502    32.6236    64.4378 CH2           1 RES     
     912 CH2         53.5423    32.3681    62.9334 CH2           1 RES     
     913 CH2         54.8924    32.0197    62.2797 CH2           1 RES     
     914 CH2         54.6845    31.7643    60.7754 CH2           1 RES     
     915 CH2         56.0346    31.4159    60.1217 CH2           1 RES     
     916 CH2         55.8267    31.1604    58.6173 CH2           1 RES     
     917 CH2         57.1768    30.8121    57.9636 CH2           1 RES     
     918 CH3         56.9783    30.5682    56.5276 CH3           1 RES     
     919 CH3         38.1727    26.4821    83.9290 CH3           1 RES     
     920 CH3         36.1807    27.7330    83.9317 CH3           1 RES     
     921 CH3         37.8295    28.2274    85.2807 CH3           1 RES     
     922 NL          37.5096    27.7383    84.0937 NL            1 RES     
     923 CH2         38.0975    28.6577    83.2291 CH2           1 RES     
     924 CH2         37.7070    28.0613    81.8640 CH2           1 RES     
     925 OA          38.2513    28.9137    80.7767 OA            1 RES     
     926 P           37.1533    30.0217    80.4204 P             1 RES     
     927 OM          35.8544    29.2386    79.9108 OM            1 RES     
     928 OM          36.9278    30.8917    81.7441 OM            1 RES     
     929 OA          37.7043    30.9625    79.2495 OA            1 RES     
     930 CH2         36.6619    31.9758    78.9461 CH2           1 RES     
     931 CH1         36.6930    32.3723    77.6474 CH1           1 RES     
     932 OE          35.3725    31.7296    77.5821 OE            1 RES     
     933 C           34.7652    31.1648    76.3323 C             1 RES     
     934 O           33.9629    30.2328    76.3072 O             1 RES     
     935 CH2         35.4861    31.8096    75.3129 CH2           1 RES     
     936 CH2         34.9484    31.1198    74.0454 CH2           1 RES     
     937 CH2         35.7620    31.5840    72.8230 CH2           1 RES     
     938 CH2         35.2243    30.8942    71.5555 CH2           1 RES     
     939 CH2         36.0379    31.3584    70.3332 CH2           1 RES     
     940 CH2         35.5002    30.6686    69.0656 CH2           1 RES     
     941 CH2         36.3138    31.1328    67.8433 CH2           1 RES     
     942 CH2         35.7761    30.4430    66.5758 CH2           1 RES     
     943 CH2         36.5897    30.9072    65.3534 CH2           1 RES     
     944 CH2         36.0520    30.2174    64.0859 CH2           1 RES     
     945 CH2         36.8657    30.6816    62.8635 CH2           1 RES     
     946 CH2         36.3280    29.9918    61.5960 CH2           1 RES     
     947 CH2         37.1416    30.4560    60.3737 CH2           1 RES     
     948 CH2         36.6039    29.7662    59.1061 CH2           1 RES     
     949 CH2         37.4175    30.2304    57.8838 CH2           1 RES     
     950 CH2         36.8798    29.5405    56.6162 CH2           1 RES     
     951 CH3         37.6564    29.9837    55.4495 CH3           1 RES     
     952 CH2         37.7198    31.5141    76.8854 CH2           1 RES     
     953 OE          37.0463    31.1486    75.6375 OE            1 RES     
     954 C           38.1500    30.3368    75.0267 C             1 RES     
     955 O           39.2419    30.1358    75.5560 O             1 RES     
     956 CH2         37.6810    30.0980    73.7238 CH2           1 RES     
     957 CH2         38.8797    29.3857    73.0701 CH2           1 RES     
     958 CH2         38.6086    29.1986    71.5658 CH2           1 RES     
     959 CH2         39.8073    28.4864    70.9120 CH2           1 RES     
     960 CH2         39.5362    28.2993    69.4077 CH2           1 RES     
     961 CH2         40.7349    27.5871    68.7540 CH2           1 RES     
     962 CH2         40.4638    27.4000    67.2496 CH2           1 RES     
     963 CH2         41.6625    26.6877    66.5959 CH2           1 RES     
     964 CH2         41.3914    26.5007    65.0915 CH2           1 RES     
     965 CH2         42.5901    25.7884    64.4378 CH2           1 RES     
     966 CH2         42.3189    25.6013    62.9334 CH2           1 RES     
     967 CH2         43.5177    24.8891    62.2797 CH2           1 RES     
     968 CH2         43.2465    24.7020    60.7754 CH2           1 RES     
     969 CH2         44.4453    23.9898    60.1217 CH2           1 RES     
     970 CH2         44.1741    23.8027    58.6173 CH2           1 RES     
     971 CH2         45.3729    23.0904    57.9636 CH2           1 RES     
     972 CH3         45.1140    22.9119    56.5276 CH3           1 RES     
     973 CH3         10.3164    37.6246    83.9290 CH3           1 RES     
     974 CH3          8.1901    38.6305    83.9317 CH3           1 RES     
     975 CH3          9.7686    39.3169    85.2807 CH3           1 RES     
     976 NL           9.5089    38.7933    84.0937 NL            1 RES     
     977 CH2          9.9836    39.7759    83.2291 CH2           1 RES     
     978 CH2          9.6667    39.1374    81.8640 CH2           1 RES     
     979 OA          10.1060    40.0484    80.7767 OA            1 RES     
     980 P            8.8843    41.0183    80.4204 P             1 RES     
     981 OM           7.6875    40.0867    79.9108 OM            1 RES     
     982 OM           8.5572    41.8555    81.7441 OM            1 RES     
     983 OA           9.3199    42.0179    79.2495 OA            1 RES     
     984 CH2          8.1647    42.9003    78.9461 CH2           1 RES     
     985 CH1          8.1485    43.2977    77.6474 CH1           1 RES     
     986 OE           6.9136    42.5030    77.5821 OE            1 RES     
     987 C            6.3775    41.8701    76.3323 C             1 RES     
     988 O            5.6914    40.8495    76.3072 O             1 RES     
     989 CH2          7.0168    42.5959    75.3129 CH2           1 RES     
     990 CH2          6.5647    41.8471    74.0454 CH2           1 RES     
     991 CH2          7.3176    42.4046    72.8230 CH2           1 RES     
     992 CH2          6.8655    41.6559    71.5555 CH2           1 RES     
     993 CH2          7.6183    42.2133    70.3332 CH2           1 RES     
     994 CH2          7.1662    41.4646    69.0656 CH2           1 RES     
     995 CH2          7.9190    42.0220    67.8433 CH2           1 RES     
     996 CH2          7.4669    41.2733    66.5758 CH2           1 RES     
     997 CH2          8.2197    41.8307    65.3534 CH2           1 RES     
     998 CH2          7.7677    41.0820    64.0859 CH2           1 RES     
     999 CH2          8.5205    41.6394    62.8635 CH2           1 RES     
    1000 CH2          8.0684    40.8907    61.5960 CH2           1 RES     
    1001 CH2          8.8212    41.4481    60.3737 CH2           1 RES     
    1002 CH2          8.3691    40.6994    59.1061 CH2           1 RES     
    1003 CH2          9.1219    41.2569    57.8838 CH2           1 RES     
    1004 CH2          8.6698    40.5081    56.6162 CH2           1 RES     
    1005 CH3          9.3884    41.0402    55.4495 CH3           1 RES     
    1006 CH2          9.2699    42.5674    76.8854 CH2           1 RES     
    1007 OE           8.6445    42.1246    75.6375 OE            1 RES     
    1008 C            9.8366    41.4494    75.0267 C             1 RES     
    1009 O           10.9447    41.3794    75.5560 O             1 RES     
    1010 CH2          9.3993    41.1566    73.7238 CH2           1 RES     
    1011 CH2         10.6740    40.5916    73.0701 CH2           1 RES     
    1012 CH2         10.4270    40.3737    71.5658 CH2           1 RES     
    1013 CH2         11.7017    39.8087    70.9120 CH2           1 RES     
    1014 CH2         11.4547    39.5907    69.4077 CH2           1 RES     
    1015 CH2         12.7294    39.0257    68.7540 CH2           1 RES     
    1016 CH2         12.4824    38.8078    67.2496 CH2           1 RES     
    1017 CH2         13.7572    38.2427    66.5959 CH2           1 RES     
    1018 CH2         13.5101    38.0248    65.0915 CH2           1 RES     
    1019 CH2         14.7849    37.4598    64.4378 CH2           1 RES     
    1020 CH2         14.5378    37.2419    62.9334 CH2           1 RES     
    1021 CH2         15.8126    36.6768    62.2797 CH2           1 RES     
    1022 CH2         15.5656    36.4589    60.7754 CH2           1 RES     
    1023 CH2         16.8403    35.8939    60.1217 CH2           1 RES     
    1024 CH2         16.5933    35.6760    58.6173 CH2           1 RES     
    1025 CH2         17.8680    35.1109    57.9636 CH2           1 RES     
    1026 CH3         17.6322    34.9029    56.5276 CH3           1 RES     
    1027 CH3         38.1727    43.1958    83.9290 CH3           1 RES     
    1028 CH3         36.2747    44.5853    83.9317 CH3           1 RES     
    1029 CH3         37.9545    44.9612    85.2807 CH3           1 RES     
    1030 NL          37.6006    44.4960    84.0937 NL            1 RES     
    1031 CH2         38.2524    45.3713    83.2291 CH2           1 RES     
    1032 CH2         37.8205    44.8042    81.8640 CH2           1 RES     
    1033 OA          38.4240    45.6158    80.7767 OA            1 RES     
    1034 P           37.4076    46.7990    80.4204 P             1 RES     
    1035 OM          36.0563    46.1103    79.9108 OM            1 RES     
    1036 OM          37.2445    47.6829    81.7441 OM            1 RES     
    1037 OA          38.0241    47.6983    79.2495 OA            1 RES     
    1038 CH2         37.0564    48.7831    78.9461 CH2           1 RES     
    1039 CH1         37.1156    49.1764    77.6474 CH1           1 RES     
    1040 OE          35.7528    48.6292    77.5821 OE            1 RES     
    1041 C           35.1068    48.1090    76.3323 C             1 RES     
    1042 O           34.2403    47.2364    76.3072 O             1 RES     
    1043 CH2         35.8717    48.7010    75.3129 CH2           1 RES     
    1044 CH2         35.2863    48.0511    74.0454 CH2           1 RES     
    1045 CH2         36.1309    48.4563    72.8230 CH2           1 RES     
    1046 CH2         35.5455    47.8065    71.5555 CH2           1 RES     
    1047 CH2         36.3901    48.2116    70.3332 CH2           1 RES     
    1048 CH2         35.8047    47.5618    69.0656 CH2           1 RES     
    1049 CH2         36.6492    47.9670    67.8433 CH2           1 RES     
    1050 CH2         36.0639    47.3172    66.5758 CH2           1 RES     
    1051 CH2         36.9084    47.7223    65.3534 CH2           1 RES     
    1052 CH2         36.3230    47.0725    64.0859 CH2           1 RES     
    1053 CH2         37.1676    47.4777    62.8635 CH2           1 RES     
    1054 CH2         36.5822    46.8278    61.5960 CH2           1 RES     
    1055 CH2         37.4268    47.2330    60.3737 CH2           1 RES     
    1056 CH2         36.8414    46.5832    59.1061 CH2           1 RES     
    1057 CH2         37.6860    46.9884    57.8838 CH2           1 RES     
    1058 CH2         37.1006    46.3385    56.6162 CH2           1 RES     
    1059 CH3         37.9067    46.7253    55.4495 CH3           1 RES     
    1060 CH2         38.0788    48.2473    76.8854 CH2           1 RES     
    1061 OE          37.3810    47.9306    75.6375 OE            1 RES     
    1062 C           38.4242    47.0425    75.0267 C             1 RES     
    1063 O           39.4991    46.7643    75.5560 O             1 RES     
    1064 CH2         37.9394    46.8376    73.7238 CH2           1 RES     
    1065 CH2         39.0844    46.0419    73.0701 CH2           1 RES     
    1066 CH2         38.8006    45.8746    71.5658 CH2           1 RES     
    1067 CH2         39.9457    45.0789    70.9120 CH2           1 RES     
    1068 CH2         39.6619    44.9115    69.4077 CH2           1 RES     
    1069 CH2         40.8070    44.1159    68.7540 CH2           1 RES     
    1070 CH2         40.5232    43.9485    67.2496 CH2           1 RES     
    1071 CH2         41.6683    43.1528    66.5959 CH2           1 RES     
    1072 CH2         41.3845    42.9855    65.0915 CH2           1 RES     
    1073 CH2         42.5296    42.1898    64.4378 CH2           1 RES     
    1074 CH2         42.2458    42.0225    62.9334 CH2           1 RES     
    1075 CH2         43.3909    41.2268    62.2797 CH2           1 RES     
    1076 CH2         43.1071    41.0595    60.7754 CH2           1 RES     
    1077 CH2         44.2522    40.2638    60.1217 CH2           1 RES     
    1078 CH2         43.9684    40.0965    58.6173 CH2           1 RES     
    1079 CH2         45.1134    39.3008    57.9636 CH2           1 RES     
    1080 CH3         44.8426    39.1411    56.5276 CH3           1 RES     
    1081 CH3         15.8876    15.3395    83.9290 CH3           1 RES     
    1082 CH3         13.5723    14.9243    83.9317 CH3           1 RES     
    1083 CH3         14.4593    16.3996    85.2807 CH3           1 RES     
    1084 NL          14.5518    15.8225    84.0937 NL            1 RES     
    1085 CH2         14.3679    16.8982    83.2291 CH2           1 RES     
    1086 CH2         14.4804    16.1943    81.8640 CH2           1 RES     
    1087 OA          14.3093    17.1911    80.7767 OA            1 RES     
    1088 P           12.7516    17.2717    80.4204 P             1 RES     
    1089 OM          12.3178    15.8184    79.9108 OM            1 RES     
    1090 OM          11.9993    17.7635    81.7441 OM            1 RES     
    1091 OA          12.5260    18.3384    79.2495 OA            1 RES     
    1092 CH2         11.0731    18.3864    78.9461 CH2           1 RES     
    1093 CH1         10.8292    18.7006    77.6474 CH1           1 RES     
    1094 OE          10.2850    17.3366    77.5821 OE            1 RES     
    1095 C           10.2159    16.5101    76.3323 C             1 RES     
    1096 O           10.2497    15.2808    76.3072 O             1 RES     
    1097 CH2         10.3152    17.4722    75.3129 CH2           1 RES     
    1098 CH2         10.3817    16.6001    74.0454 CH2           1 RES     
    1099 CH2         10.6711    17.4910    72.8230 CH2           1 RES     
    1100 CH2         10.7376    16.6189    71.5555 CH2           1 RES     
    1101 CH2         11.0270    17.5098    70.3332 CH2           1 RES     
    1102 CH2         11.0935    16.6377    69.0656 CH2           1 RES     
    1103 CH2         11.3829    17.5286    67.8433 CH2           1 RES     
    1104 CH2         11.4494    16.6565    66.5758 CH2           1 RES     
    1105 CH2         11.7388    17.5474    65.3534 CH2           1 RES     
    1106 CH2         11.8053    16.6753    64.0859 CH2           1 RES     
    1107 CH2         12.0947    17.5662    62.8635 CH2           1 RES     
    1108 CH2         12.1612    16.6941    61.5960 CH2           1 RES     
    1109 CH2         12.4507    17.5850    60.3737 CH2           1 RES     
    1110 CH2         12.5172    16.7129    59.1061 CH2           1 RES     
    1111 CH2         12.8066    17.6038    57.8838 CH2           1 RES     
    1112 CH2         12.8731    16.7317    56.6162 CH2           1 RES     
    1113 CH3         13.1493    17.5822    55.4495 CH3           1 RES     
    1114 CH2         12.1663    18.7568    76.8854 CH2           1 RES     
    1115 OE          11.9141    18.0333    75.6375 OE            1 RES     
    1116 C           13.2767    18.1755    75.0267 C             1 RES     
    1117 O           14.2197    18.7617    75.5560 O             1 RES     
    1118 CH2         13.0906    17.6832    73.7238 CH2           1 RES     
    1119 CH2         14.4565    17.9631    73.0701 CH2           1 RES     
    1120 CH2         14.3819    17.6423    71.5658 CH2           1 RES     
    1121 CH2         15.7479    17.9221    70.9120 CH2           1 RES     
    1122 CH2         15.6732    17.6013    69.4077 CH2           1 RES     
    1123 CH2         17.0392    17.8812    68.7540 CH2           1 RES     
    1124 CH2         16.9646    17.5603    67.2496 CH2           1 RES     
    1125 CH2         18.3305    17.8402    66.5959 CH2           1 RES     
    1126 CH2         18.2559    17.5193    65.0915 CH2           1 RES     
    1127 CH2         19.6219    17.7992    64.4378 CH2           1 RES     
    1128 CH2         19.5472    17.4784    62.9334 CH2           1 RES     
    1129 CH2         20.9132    17.7582    62.2797 CH2           1 RES     
    1130 CH2         20.8386    17.4374    60.7754 CH2           1 RES     
    1131 CH2         22.2045    17.7173    60.1217 CH2           1 RES     
    1132 CH2         22.1299    17.3964    58.6173 CH2           1 RES     
    1133 CH2         23.4959    17.6763    57.9636 CH2           1 RES     
    1134 CH3         23.4246    17.3700    56.5276 CH3           1 RES     
    1135 CH3         21.4589    37.6246    83.9290 CH3           1 RES     
    1136 CH3         19.6280    39.1013    83.9317 CH3           1 RES     
    1137 CH3         21.3236    39.3982    85.2807 CH3           1 RES     
    1138 NL          20.9483    38.9501    84.0937 NL            1 RES     
    1139 CH2         21.6403    39.7940    83.2291 CH2           1 RES     
    1140 CH2         21.1824    39.2476    81.8640 CH2           1 RES     
    1141 OA          21.8232    40.0301    80.7767 OA            1 RES     
    1142 P           20.8632    41.2596    80.4204 P             1 RES     
    1143 OM          19.4812    40.6348    79.9108 OM            1 RES     
    1144 OM          20.7417    42.1501    81.7441 OM            1 RES     
    1145 OA          21.5212    42.1290    79.2495 OA            1 RES     
    1146 CH2         20.6053    43.2579    78.9461 CH2           1 RES     
    1147 CH1         20.6828    43.6480    77.6474 CH1           1 RES     
    1148 OE          19.2959    43.1653    77.5821 OE            1 RES     
    1149 C           18.6263    42.6759    76.3323 C             1 RES     
    1150 O           17.7199    41.8448    76.3072 O             1 RES     
    1151 CH2         19.4181    43.2313    75.3129 CH2           1 RES     
    1152 CH2         18.8029    42.6096    74.0454 CH2           1 RES     
    1153 CH2         19.6655    42.9748    72.8230 CH2           1 RES     
    1154 CH2         19.0504    42.3531    71.5555 CH2           1 RES     
    1155 CH2         19.9130    42.7183    70.3332 CH2           1 RES     
    1156 CH2         19.2978    42.0966    69.0656 CH2           1 RES     
    1157 CH2         20.1604    42.4618    67.8433 CH2           1 RES     
    1158 CH2         19.5452    41.8401    66.5758 CH2           1 RES     
    1159 CH2         20.4078    42.2053    65.3534 CH2           1 RES     
    1160 CH2         19.7927    41.5835    64.0859 CH2           1 RES     
    1161 CH2         20.6553    41.9488    62.8635 CH2           1 RES     
    1162 CH2         20.0401    41.3270    61.5960 CH2           1 RES     
    1163 CH2         20.9027    41.6922    60.3737 CH2           1 RES     
    1164 CH2         20.2876    41.0705    59.1061 CH2           1 RES     
    1165 CH2         21.1502    41.4357    57.8838 CH2           1 RES     
    1166 CH2         20.5350    40.8140    56.6162 CH2           1 RES     
    1167 CH3         21.3584    41.1626    55.4495 CH3           1 RES     
    1168 CH2         21.6015    42.6749    76.8854 CH2           1 RES     
    1169 OE          20.8897    42.3912    75.6375 OE            1 RES     
    1170 C           21.8901    41.4552    75.0267 C             1 RES     
    1171 O           22.9508    41.1271    75.5560 O             1 RES     
    1172 CH2         21.3962    41.2732    73.7238 CH2           1 RES     
    1173 CH2         22.5028    40.4248    73.0701 CH2           1 RES     
    1174 CH2         22.2115    40.2710    71.5658 CH2           1 RES     
    1175 CH2         23.3181    39.4226    70.9120 CH2           1 RES     
    1176 CH2         23.0268    39.2687    69.4077 CH2           1 RES     
    1177 CH2         24.1334    38.4203    68.7540 CH2           1 RES     
    1178 CH2         23.8421    38.2665    67.2496 CH2           1 RES     
    1179 CH2         24.9487    37.4181    66.5959 CH2           1 RES     
    1180 CH2         24.6574    37.2642    65.0915 CH2           1 RES     
    1181 CH2         25.7639    36.4158    64.4378 CH2           1 RES     
    1182 CH2         25.4727    36.2619    62.9334 CH2           1 RES     
    1183 CH2         26.5792    35.4135    62.2797 CH2           1 RES     
    1184 CH2         26.2880    35.2597    60.7754 CH2           1 RES     
    1185 CH2         27.3945    34.4113    60.1217 CH2           1 RES     
    1186 CH2         27.1032    34.2574    58.6173 CH2           1 RES     
    1187 CH2         28.2098    33.4090    57.9636 CH2           1 RES     
    1188 CH3         27.9318    33.2621    56.5276 CH3           1 RES     
    1189 CH3         15.8876    43.1958    83.9290 CH3           1 RES     
    1190 CH3         13.5610    43.5417    83.9317 CH3           1 RES     
    1191 CH3         14.8726    44.6565    85.2807 CH3           1 RES     
    1192 NL          14.7759    44.0801    84.0937 NL            1 RES     
    1193 CH2         14.9452    45.1582    83.2291 CH2           1 RES     
    1194 CH2         14.8271    44.4552    81.8640 CH2           1 RES     
    1195 OA          14.9832    45.4544    80.7767 OA            1 RES     
    1196 P           13.5328    46.0283    80.4204 P             1 RES     
    1197 OM          12.6576    44.7895    79.9108 OM            1 RES     
    1198 OM          12.9769    46.7345    81.7441 OM            1 RES     
    1199 OA          13.6596    47.1112    79.2495 OA            1 RES     
    1200 CH2         12.2981    47.6206    78.9461 CH2           1 RES     
    1201 CH1         12.1674    47.9962    77.6474 CH1           1 RES     
    1202 OE          11.2161    46.8774    77.5821 OE            1 RES     
    1203 C           10.8866    46.1163    76.3323 C             1 RES     
    1204 O           10.5261    44.9406    76.3072 O             1 RES     
    1205 CH2         11.2879    46.9963    75.3129 CH2           1 RES     
    1206 CH2         11.0725    46.1486    74.0454 CH2           1 RES     
    1207 CH2         11.6312    46.9005    72.8230 CH2           1 RES     
    1208 CH2         11.4158    46.0528    71.5555 CH2           1 RES     
    1209 CH2         11.9745    46.8046    70.3332 CH2           1 RES     
    1210 CH2         11.7590    45.9570    69.0656 CH2           1 RES     
    1211 CH2         12.3178    46.7088    67.8433 CH2           1 RES     
    1212 CH2         12.1023    45.8611    66.5758 CH2           1 RES     
    1213 CH2         12.6611    46.6130    65.3534 CH2           1 RES     
    1214 CH2         12.4456    45.7653    64.0859 CH2           1 RES     
    1215 CH2         13.0044    46.5171    62.8635 CH2           1 RES     
    1216 CH2         12.7889    45.6695    61.5960 CH2           1 RES     
    1217 CH2         13.3477    46.4213    60.3737 CH2           1 RES     
    1218 CH2         13.1322    45.5736    59.1061 CH2           1 RES     
    1219 CH2         13.6909    46.3255    57.8838 CH2           1 RES     
    1220 CH2         13.4755    45.4778    56.6162 CH2           1 RES     
    1221 CH3         14.0088    46.1955    55.4495 CH3           1 RES     
    1222 CH2         13.4524    47.6225    76.8854 CH2           1 RES     
    1223 OE          12.9823    47.0174    75.6375 OE            1 RES     
    1224 C           14.3191    46.7171    75.0267 C             1 RES     
    1225 O           15.3998    46.9715    75.5560 O             1 RES     
    1226 CH2         13.9854    46.3100    73.7238 CH2           1 RES     
    1227 CH2         15.3692    46.1390    73.0701 CH2           1 RES     
    1228 CH2         15.1960    45.8588    71.5658 CH2           1 RES     
    1229 CH2         16.5799    45.6879    70.9120 CH2           1 RES     
    1230 CH2         16.4067    45.4077    69.4077 CH2           1 RES     
    1231 CH2         17.7905    45.2367    68.7540 CH2           1 RES     
    1232 CH2         17.6173    44.9565    67.2496 CH2           1 RES     
    1233 CH2         19.0012    44.7855    66.5959 CH2           1 RES     
    1234 CH2         18.8280    44.5053    65.0915 CH2           1 RES     
    1235 CH2         20.2118    44.3343    64.4378 CH2           1 RES     
    1236 CH2         20.0386    44.0541    62.9334 CH2           1 RES     
    1237 CH2         21.4225    43.8831    62.2797 CH2           1 RES     
    1238 CH2         21.2493    43.6029    60.7754 CH2           1 RES     
    1239 CH2         22.6331    43.4319    60.1217 CH2           1 RES     
    1240 CH2         22.4599    43.1517    58.6173 CH2           1 RES     
    1241 CH2         23.8437    42.9808    57.9636 CH2           1 RES     
    1242 CH3         23.6784    42.7133    56.5276 CH3           1 RES     
    1243 CH3         15.8876    26.4821    83.9290 CH3           1 RES     
    1244 CH3         13.8028    27.5712    83.9317 CH3           1 RES     
    1245 CH3         15.4072    28.1947    85.2807 CH3           1 RES     
    1246 NL          15.1270    27.6818    84.0937 NL            1 RES     
    1247 CH2         15.6402    28.6449    83.2291 CH2           1 RES     
    1248 CH2         15.2983    28.0194    81.8640 CH2           1 RES     
    1249 OA          15.7733    28.9123    80.7767 OA            1 RES     
    1250 P           14.5909    29.9298    80.4204 P             1 RES     
    1251 OM          13.3582    29.0462    79.9108 OM            1 RES     
    1252 OM          14.2971    30.7792    81.7441 OM            1 RES     
    1253 OA          15.0656    30.9113    79.2495 OA            1 RES     
    1254 CH2         13.9462    31.8388    78.9461 CH2           1 RES     
    1255 CH1         13.9457    32.2365    77.6474 CH1           1 RES     
    1256 OE          12.6804    31.4912    77.5821 OE            1 RES     
    1257 C           12.1197    30.8800    76.3323 C             1 RES     
    1258 O           11.3938    29.8873    76.3072 O             1 RES     
    1259 CH2         12.7872    31.5799    75.3129 CH2           1 RES     
    1260 CH2         12.3059    30.8496    74.0454 CH2           1 RES     
    1261 CH2         13.0802    31.3769    72.8230 CH2           1 RES     
    1262 CH2         12.5988    30.6466    71.5555 CH2           1 RES     
    1263 CH2         13.3731    31.1739    70.3332 CH2           1 RES     
    1264 CH2         12.8917    30.4436    69.0656 CH2           1 RES     
    1265 CH2         13.6660    30.9708    67.8433 CH2           1 RES     
    1266 CH2         13.1847    30.2406    66.5758 CH2           1 RES     
    1267 CH2         13.9589    30.7678    65.3534 CH2           1 RES     
    1268 CH2         13.4776    30.0375    64.0859 CH2           1 RES     
    1269 CH2         14.2519    30.5648    62.8635 CH2           1 RES     
    1270 CH2         13.7705    29.8345    61.5960 CH2           1 RES     
    1271 CH2         14.5448    30.3617    60.3737 CH2           1 RES     
    1272 CH2         14.0635    29.6315    59.1061 CH2           1 RES     
    1273 CH2         14.8377    30.1587    57.8838 CH2           1 RES     
    1274 CH2         14.3564    29.4285    56.6162 CH2           1 RES     
    1275 CH3         15.0955    29.9317    55.4495 CH3           1 RES     
    1276 CH2         15.0374    31.4623    76.8854 CH2           1 RES     
    1277 OE          14.3950    31.0446    75.6375 OE            1 RES     
    1278 C           15.5595    30.3229    75.0267 C             1 RES     
    1279 O           16.6639    30.2091    75.5560 O             1 RES     
    1280 CH2         15.1109    30.0476    73.7238 CH2           1 RES     
    1281 CH2         16.3623    29.4326    73.0701 CH2           1 RES     
    1282 CH2         16.1068    29.2246    71.5658 CH2           1 RES     
    1283 CH2         17.3583    28.6097    70.9120 CH2           1 RES     
    1284 CH2         17.1028    28.4017    69.4077 CH2           1 RES     
    1285 CH2         18.3542    27.7867    68.7540 CH2           1 RES     
    1286 CH2         18.0988    27.5787    67.2496 CH2           1 RES     
    1287 CH2         19.3502    26.9637    66.5959 CH2           1 RES     
    1288 CH2         19.0947    26.7557    65.0915 CH2           1 RES     
    1289 CH2         20.3461    26.1407    64.4378 CH2           1 RES     
    1290 CH2         20.0907    25.9327    62.9334 CH2           1 RES     
    1291 CH2         21.3421    25.3177    62.2797 CH2           1 RES     
    1292 CH2         21.0866    25.1098    60.7754 CH2           1 RES     
    1293 CH2         22.3380    24.4948    60.1217 CH2           1 RES     
    1294 CH2         22.0826    24.2868    58.6173 CH2           1 RES     
    1295 CH2         23.3340    23.6718    57.9636 CH2           1 RES     
    1296 CH3         23.0901    23.4733    56.5276 CH3           1 RES     
    1297 CH3         49.3152     9.7683    83.9290 CH3           1 RES     
    1298 CH3         47.0026     9.3381    83.9317 CH3           1 RES     
    1299 CH3         47.8800    10.8191    85.2807 CH3           1 RES     
    1300 NL          47.9762    10.2426    84.0937 NL            1 RES     
    1301 CH2         47.7854    11.3171    83.2291 CH2           1 RES     
    1302 CH2         47.9025    10.6139    81.8640 CH2           1 RES     
    1303 OA          47.7250    11.6096    80.7767 OA            1 RES     
    1304 P           46.1667    11.6801    80.4204 P             1 RES     
    1305 OM          45.7424    10.2240    79.9108 OM            1 RES     
    1306 OM          45.4112    12.1670    81.7441 OM            1 RES     
    1307 OA          45.9342    12.7454    79.2495 OA            1 RES     
    1308 CH2         44.4811    12.7840    78.9461 CH2           1 RES     
    1309 CH1         44.2352    13.0966    77.6474 CH1           1 RES     
    1310 OE          43.6998    11.7291    77.5821 OE            1 RES     
    1311 C           43.6360    10.9022    76.3323 C             1 RES     
    1312 O           43.6777     9.6731    76.3072 O             1 RES     
    1313 CH2         43.7291    11.8649    75.3129 CH2           1 RES     
    1314 CH2         43.8012    10.9932    74.0454 CH2           1 RES     
    1315 CH2         44.0849    11.8860    72.8230 CH2           1 RES     
    1316 CH2         44.1570    11.0143    71.5555 CH2           1 RES     
    1317 CH2         44.4406    11.9071    70.3332 CH2           1 RES     
    1318 CH2         44.5128    11.0354    69.0656 CH2           1 RES     
    1319 CH2         44.7964    11.9282    67.8433 CH2           1 RES     
    1320 CH2         44.8686    11.0565    66.5758 CH2           1 RES     
    1321 CH2         45.1522    11.9493    65.3534 CH2           1 RES     
    1322 CH2         45.2243    11.0777    64.0859 CH2           1 RES     
    1323 CH2         45.5080    11.9704    62.8635 CH2           1 RES     
    1324 CH2         45.5801    11.0988    61.5960 CH2           1 RES     
    1325 CH2         45.8638    11.9915    60.3737 CH2           1 RES     
    1326 CH2         45.9359    11.1199    59.1061 CH2           1 RES     
    1327 CH2         46.2196    12.0126    57.8838 CH2           1 RES     
    1328 CH2         46.2917    11.1410    56.6162 CH2           1 RES     
    1329 CH3         46.5625    11.9931    55.4495 CH3           1 RES     
    1330 CH2         45.5719    13.1614    76.8854 CH2           1 RES     
    1331 OE          45.3244    12.4363    75.6375 OE            1 RES     
    1332 C           46.6860    12.5873    75.0267 C             1 RES     
    1333 O           47.6252    13.1796    75.5560 O             1 RES     
    1334 CH2         46.5030    12.0938    73.7238 CH2           1 RES     
    1335 CH2         47.8672    12.3825    73.0701 CH2           1 RES     
    1336 CH2         47.7946    12.0612    71.5658 CH2           1 RES     
    1337 CH2         49.1588    12.3499    70.9120 CH2           1 RES     
    1338 CH2         49.0862    12.0286    69.4077 CH2           1 RES     
    1339 CH2         50.4503    12.3173    68.7540 CH2           1 RES     
    1340 CH2         50.3777    11.9960    67.2496 CH2           1 RES     
    1341 CH2         51.7419    12.2847    66.5959 CH2           1 RES     
    1342 CH2         51.6693    11.9633    65.0915 CH2           1 RES     
    1343 CH2         53.0335    12.2520    64.4378 CH2           1 RES     
    1344 CH2         52.9609    11.9307    62.9334 CH2           1 RES     
    1345 CH2         54.3250    12.2194    62.2797 CH2           1 RES     
    1346 CH2         54.2525    11.8981    60.7754 CH2           1 RES     
    1347 CH2         55.6166    12.1868    60.1217 CH2           1 RES     
    1348 CH2         55.5440    11.8655    58.6173 CH2           1 RES     
    1349 CH2         56.9082    12.1542    57.9636 CH2           1 RES     
    1350 CH3         56.8389    11.8475    56.5276 CH3           1 RES     
    1351 CH3         38.1727     4.1970    83.9290 CH3           1 RES     
    1352 CH3         35.8307     4.4167    83.9317 CH3           1 RES     
    1353 CH3         37.0802     5.6008    85.2807 CH3           1 RES     
    1354 NL          37.0148     5.0199    84.0937 NL            1 RES     
    1355 CH2         37.1256     6.1056    83.2291 CH2           1 RES     
    1356 CH2         37.0457     5.3973    81.8640 CH2           1 RES     
    1357 OA          37.1476     6.4035    80.7767 OA            1 RES     
    1358 P           35.6683     6.8982    80.4204 P             1 RES     
    1359 OM          34.8613     5.6140    79.9108 OM            1 RES     
    1360 OM          35.0751     7.5734    81.7441 OM            1 RES     
    1361 OA          35.7365     7.9864    79.2495 OA            1 RES     
    1362 CH2         34.3495     8.4215    78.9461 CH2           1 RES     
    1363 CH1         34.1987     8.7895    77.6474 CH1           1 RES     
    1364 OE          33.3092     7.6210    77.5821 OE            1 RES     
    1365 C           33.0213     6.8432    76.3323 C             1 RES     
    1366 O           32.7248     5.6497    76.3072 O             1 RES     
    1367 CH2         33.3745     7.7436    75.3129 CH2           1 RES     
    1368 CH2         33.2051     6.8855    74.0454 CH2           1 RES     
    1369 CH2         33.7225     7.6664    72.8230 CH2           1 RES     
    1370 CH2         33.5531     6.8084    71.5555 CH2           1 RES     
    1371 CH2         34.0704     7.5893    70.3332 CH2           1 RES     
    1372 CH2         33.9010     6.7312    69.0656 CH2           1 RES     
    1373 CH2         34.4184     7.5121    67.8433 CH2           1 RES     
    1374 CH2         34.2490     6.6540    66.5758 CH2           1 RES     
    1375 CH2         34.7663     7.4350    65.3534 CH2           1 RES     
    1376 CH2         34.5970     6.5769    64.0859 CH2           1 RES     
    1377 CH2         35.1143     7.3578    62.8635 CH2           1 RES     
    1378 CH2         34.9449     6.4997    61.5960 CH2           1 RES     
    1379 CH2         35.4623     7.2806    60.3737 CH2           1 RES     
    1380 CH2         35.2929     6.4226    59.1061 CH2           1 RES     
    1381 CH2         35.8102     7.2035    57.8838 CH2           1 RES     
    1382 CH2         35.6408     6.3454    56.6162 CH2           1 RES     
    1383 CH3         36.1347     7.0908    55.4495 CH3           1 RES     
    1384 CH2         35.5020     8.4858    76.8854 CH2           1 RES     
    1385 OE          35.0653     7.8561    75.6375 OE            1 RES     
    1386 C           36.4163     7.6284    75.0267 C             1 RES     
    1387 O           37.4817     7.9408    75.5560 O             1 RES     
    1388 CH2         36.1051     7.2039    73.7238 CH2           1 RES     
    1389 CH2         37.4961     7.1079    73.0701 CH2           1 RES     
    1390 CH2         37.3383     6.8188    71.5658 CH2           1 RES     
    1391 CH2         38.7294     6.7228    70.9120 CH2           1 RES     
    1392 CH2         38.5716     6.4336    69.4077 CH2           1 RES     
    1393 CH2         39.9626     6.3376    68.7540 CH2           1 RES     
    1394 CH2         39.8048     6.0485    67.2496 CH2           1 RES     
    1395 CH2         41.1958     5.9524    66.5959 CH2           1 RES     
    1396 CH2         41.0380     5.6633    65.0915 CH2           1 RES     
    1397 CH2         42.4291     5.5673    64.4378 CH2           1 RES     
    1398 CH2         42.2713     5.2781    62.9334 CH2           1 RES     
    1399 CH2         43.6623     5.1821    62.2797 CH2           1 RES     
    1400 CH2         43.5045     4.8930    60.7754 CH2           1 RES     
    1401 CH2         44.8956     4.7970    60.1217 CH2           1 RES     
    1402 CH2         44.7377     4.5078    58.6173 CH2           1 RES     
    1403 CH2         46.1288     4.4118    57.9636 CH2           1 RES     
    1404 CH3         45.9781     4.1358    56.5276 CH3           1 RES     
    1405 CH3         32.6014    32.0533    83.9290 CH3           1 RES     
    1406 CH3         30.3065    31.5374    83.9317 CH3           1 RES     
    1407 CH3         31.1281    33.0500    85.2807 CH3           1 RES     
    1408 NL          31.2457    32.4775    84.0937 NL            1 RES     
    1409 CH2         31.0151    33.5441    83.2291 CH2           1 RES     
    1410 CH2         31.1583    32.8458    81.8640 CH2           1 RES     
    1411 OA          30.9438    33.8342    80.7767 OA            1 RES     
    1412 P           29.3840    33.8467    80.4204 P             1 RES     
    1413 OM          29.0141    32.3758    79.9108 OM            1 RES     
    1414 OM          28.6109    34.3052    81.7441 OM            1 RES     
    1415 OA          29.1120    34.9026    79.2495 OA            1 RES     
    1416 CH2         27.6585    34.8871    78.9461 CH2           1 RES     
    1417 CH1         27.4011    35.1903    77.6474 CH1           1 RES     
    1418 OE          26.9170    33.8039    77.5821 OE            1 RES     
    1419 C           26.8840    32.9751    76.3323 C             1 RES     
    1420 O           26.9714    31.7485    76.3072 O             1 RES     
    1421 CH2         26.9412    33.9407    75.3129 CH2           1 RES     
    1422 CH2         27.0457    33.0723    74.0454 CH2           1 RES     
    1423 CH2         27.2959    33.9750    72.8230 CH2           1 RES     
    1424 CH2         27.4004    33.1066    71.5555 CH2           1 RES     
    1425 CH2         27.6507    34.0093    70.3332 CH2           1 RES     
    1426 CH2         27.7552    33.1410    69.0656 CH2           1 RES     
    1427 CH2         28.0054    34.0436    67.8433 CH2           1 RES     
    1428 CH2         28.1099    33.1753    66.5758 CH2           1 RES     
    1429 CH2         28.3602    34.0780    65.3534 CH2           1 RES     
    1430 CH2         28.4647    33.2096    64.0859 CH2           1 RES     
    1431 CH2         28.7149    34.1123    62.8635 CH2           1 RES     
    1432 CH2         28.8194    33.2439    61.5960 CH2           1 RES     
    1433 CH2         29.0697    34.1466    60.3737 CH2           1 RES     
    1434 CH2         29.1742    33.2783    59.1061 CH2           1 RES     
    1435 CH2         29.4244    34.1810    57.8838 CH2           1 RES     
    1436 CH2         29.5289    33.3126    56.6162 CH2           1 RES     
    1437 CH3         29.7678    34.1743    55.4495 CH3           1 RES     
    1438 CH2         28.7345    35.3049    76.8854 CH2           1 RES     
    1439 OE          28.5141    34.5710    75.6375 OE            1 RES     
    1440 C           29.8692    34.7726    75.0267 C             1 RES     
    1441 O           30.7857    35.3994    75.5560 O             1 RES     
    1442 CH2         29.7047    34.2727    73.7238 CH2           1 RES     
    1443 CH2         31.0572    34.6119    73.0701 CH2           1 RES     
    1444 CH2         30.9966    34.2881    71.5658 CH2           1 RES     
    1445 CH2         32.3490    34.6274    70.9120 CH2           1 RES     
    1446 CH2         32.2885    34.3036    69.4077 CH2           1 RES     
    1447 CH2         33.6409    34.6428    68.7540 CH2           1 RES     
    1448 CH2         33.5804    34.3190    67.2496 CH2           1 RES     
    1449 CH2         34.9328    34.6582    66.5959 CH2           1 RES     
    1450 CH2         34.8723    34.3344    65.0915 CH2           1 RES     
    1451 CH2         36.2247    34.6737    64.4378 CH2           1 RES     
    1452 CH2         36.1641    34.3499    62.9334 CH2           1 RES     
    1453 CH2         37.5166    34.6891    62.2797 CH2           1 RES     
    1454 CH2         37.4560    34.3653    60.7754 CH2           1 RES     
    1455 CH2         38.8085    34.7046    60.1217 CH2           1 RES     
    1456 CH2         38.7479    34.3808    58.6173 CH2           1 RES     
    1457 CH2         40.1004    34.7200    57.9636 CH2           1 RES     
    1458 CH3         40.0426    34.4109    56.5276 CH3           1 RES     
    1459 CH3         21.4589     4.1970    83.9290 CH3           1 RES     
    1460 CH3         19.1307     4.5324    83.9317 CH3           1 RES     
    1461 CH3         20.4373     5.6531    85.2807 CH3           1 RES     
    1462 NL          20.3432     5.0762    84.0937 NL            1 RES     
    1463 CH2         20.5076     6.1551    83.2291 CH2           1 RES     
    1464 CH2         20.3927     5.4516    81.8640 CH2           1 RES     
    1465 OA          20.5443     6.4515    80.7767 OA            1 RES     
    1466 P           19.0913     7.0188    80.4204 P             1 RES     
    1467 OM          18.2218     5.7762    79.9108 OM            1 RES     
    1468 OM          18.5322     7.7226    81.7441 OM            1 RES     
    1469 OA          19.2133     8.1023    79.2495 OA            1 RES     
    1470 CH2         17.8495     8.6056    78.9461 CH2           1 RES     
    1471 CH1         17.7171     8.9806    77.6474 CH1           1 RES     
    1472 OE          16.7708     7.8576    77.5821 OE            1 RES     
    1473 C           16.4448     7.0949    76.3323 C             1 RES     
    1474 O           16.0896     5.9176    76.3072 O             1 RES     
    1475 CH2         16.8422     7.9768    75.3129 CH2           1 RES     
    1476 CH2         16.6305     7.1281    74.0454 CH2           1 RES     
    1477 CH2         17.1859     7.8825    72.8230 CH2           1 RES     
    1478 CH2         16.9742     7.0338    71.5555 CH2           1 RES     
    1479 CH2         17.5296     7.7882    70.3332 CH2           1 RES     
    1480 CH2         17.3179     6.9395    69.0656 CH2           1 RES     
    1481 CH2         17.8733     7.6939    67.8433 CH2           1 RES     
    1482 CH2         17.6616     6.8453    66.5758 CH2           1 RES     
    1483 CH2         18.2170     7.5996    65.3534 CH2           1 RES     
    1484 CH2         18.0054     6.7510    64.0859 CH2           1 RES     
    1485 CH2         18.5607     7.5053    62.8635 CH2           1 RES     
    1486 CH2         18.3491     6.6567    61.5960 CH2           1 RES     
    1487 CH2         18.9044     7.4110    60.3737 CH2           1 RES     
    1488 CH2         18.6928     6.5624    59.1061 CH2           1 RES     
    1489 CH2         19.2482     7.3167    57.8838 CH2           1 RES     
    1490 CH2         19.0365     6.4681    56.6162 CH2           1 RES     
    1491 CH3         19.5666     7.1882    55.4495 CH3           1 RES     
    1492 CH2         19.0038     8.6127    76.8854 CH2           1 RES     
    1493 OE          18.5364     8.0055    75.6375 OE            1 RES     
    1494 C           19.8745     7.7112    75.0267 C             1 RES     
    1495 O           20.9541     7.9704    75.5560 O             1 RES     
    1496 CH2         19.5427     7.3026    73.7238 CH2           1 RES     
    1497 CH2         20.9273     7.1379    73.0701 CH2           1 RES     
    1498 CH2         20.7554     6.8569    71.5658 CH2           1 RES     
    1499 CH2         22.1399     6.6921    70.9120 CH2           1 RES     
    1500 CH2         21.9680     6.4111    69.4077 CH2           1 RES     
    1501 CH2         23.3526     6.2464    68.7540 CH2           1 RES     
    1502 CH2         23.1807     5.9654    67.2496 CH2           1 RES     
    1503 CH2         24.5653     5.8006    66.5959 CH2           1 RES     
    1504 CH2         24.3933     5.5197    65.0915 CH2           1 RES     
    1505 CH2         25.7779     5.3549    64.4378 CH2           1 RES     
    1506 CH2         25.6060     5.0739    62.9334 CH2           1 RES     
    1507 CH2         26.9906     4.9092    62.2797 CH2           1 RES     
    1508 CH2         26.8186     4.6282    60.7754 CH2           1 RES     
    1509 CH2         28.2032     4.4634    60.1217 CH2           1 RES     
    1510 CH2         28.0313     4.1824    58.6173 CH2           1 RES     
    1511 CH2         29.4159     4.0177    57.9636 CH2           1 RES     
    1512 CH3         29.2518     3.7495    56.5276 CH3           1 RES     
    1513 CH3         15.8876     4.1970    83.9290 CH3           1 RES     
    1514 CH3         13.7482     5.1746    83.9317 CH3           1 RES     
    1515 CH3         15.3175     5.8819    85.2807 CH3           1 RES     
    1516 NL          15.0648     5.3549    84.0937 NL            1 RES     
    1517 CH2         15.5264     6.3438    83.2291 CH2           1 RES     
    1518 CH2         15.2179     5.7011    81.8640 CH2           1 RES     
    1519 OA          15.6451     6.6179    80.7767 OA            1 RES     
    1520 P           14.4107     7.5715    80.4204 P             1 RES     
    1521 OM          13.2264     6.6240    79.9108 OM            1 RES     
    1522 OM          14.0725     8.4042    81.7441 OM            1 RES     
    1523 OA          14.8329     8.5767    79.2495 OA            1 RES     
    1524 CH2         13.6662     9.4438    78.9461 CH2           1 RES     
    1525 CH1         13.6447     9.8409    77.6474 CH1           1 RES     
    1526 OE          12.4204     9.0298    77.5821 OE            1 RES     
    1527 C           11.8928     8.3899    76.3323 C             1 RES     
    1528 O           11.2203     7.3603    76.3072 O             1 RES     
    1529 CH2         12.5224     9.1241    75.3129 CH2           1 RES     
    1530 CH2         12.0803     8.3694    74.0454 CH2           1 RES     
    1531 CH2         12.8257     8.9368    72.8230 CH2           1 RES     
    1532 CH2         12.3836     8.1822    71.5555 CH2           1 RES     
    1533 CH2         13.1289     8.7495    70.3332 CH2           1 RES     
    1534 CH2         12.6868     7.9949    69.0656 CH2           1 RES     
    1535 CH2         13.4322     8.5623    67.8433 CH2           1 RES     
    1536 CH2         12.9900     7.8076    66.5758 CH2           1 RES     
    1537 CH2         13.7354     8.3750    65.3534 CH2           1 RES     
    1538 CH2         13.2933     7.6203    64.0859 CH2           1 RES     
    1539 CH2         14.0386     8.1877    62.8635 CH2           1 RES     
    1540 CH2         13.5965     7.4330    61.5960 CH2           1 RES     
    1541 CH2         14.3419     8.0004    60.3737 CH2           1 RES     
    1542 CH2         13.8998     7.2458    59.1061 CH2           1 RES     
    1543 CH2         14.6451     7.8131    57.8838 CH2           1 RES     
    1544 CH2         14.2030     7.0585    56.6162 CH2           1 RES     
    1545 CH3         14.9145     7.6001    55.4495 CH3           1 RES     
    1546 CH2         14.7757     9.1255    76.8854 CH2           1 RES     
    1547 OE          14.1562     8.6744    75.6375 OE            1 RES     
    1548 C           15.3572     8.0152    75.0267 C             1 RES     
    1549 O           16.4661     7.9598    75.5560 O             1 RES     
    1550 CH2         14.9238     7.7166    73.7238 CH2           1 RES     
    1551 CH2         16.2059     7.1685    73.0701 CH2           1 RES     
    1552 CH2         15.9618     6.9474    71.5658 CH2           1 RES     
    1553 CH2         17.2439     6.3993    70.9120 CH2           1 RES     
    1554 CH2         16.9998     6.1781    69.4077 CH2           1 RES     
    1555 CH2         18.2819     5.6300    68.7540 CH2           1 RES     
    1556 CH2         18.0378     5.4088    67.2496 CH2           1 RES     
    1557 CH2         19.3199     4.8608    66.5959 CH2           1 RES     
    1558 CH2         19.0758     4.6396    65.0915 CH2           1 RES     
    1559 CH2         20.3579     4.0915    64.4378 CH2           1 RES     
    1560 CH2         20.1138     3.8703    62.9334 CH2           1 RES     
    1561 CH2         21.3959     3.3222    62.2797 CH2           1 RES     
    1562 CH2         21.1518     3.1011    60.7754 CH2           1 RES     
    1563 CH2         22.4339     2.5530    60.1217 CH2           1 RES     
    1564 CH2         22.1898     2.3318    58.6173 CH2           1 RES     
    1565 CH2         23.4719     1.7837    57.9636 CH2           1 RES     
    1566 CH3         23.2389     1.5726    56.5276 CH3           1 RES     
    1567 CH3         38.1727    32.0533    83.9290 CH3           1 RES     
    1568 CH3         35.9281    31.3499    83.9317 CH3           1 RES     
    1569 CH3         36.6222    32.9251    85.2807 CH3           1 RES     
    1570 NL          36.7866    32.3642    84.0937 NL            1 RES     
    1571 CH2         36.4688    33.4082    83.2291 CH2           1 RES     
    1572 CH2         36.6691    32.7241    81.8640 CH2           1 RES     
    1573 OA          36.3738    33.6914    80.7767 OA            1 RES     
    1574 P           34.8183    33.5753    80.4204 P             1 RES     
    1575 OM          34.5710    32.0789    79.9108 OM            1 RES     
    1576 OM          34.0101    33.9684    81.7441 OM            1 RES     
    1577 OA          34.4602    34.6051    79.2495 OA            1 RES     
    1578 CH2         33.0128    34.4698    78.9461 CH2           1 RES     
    1579 CH1         32.7314    34.7508    77.6474 CH1           1 RES     
    1580 OE          32.3632    33.3291    77.5821 OE            1 RES     
    1581 C           32.3987    32.5005    76.3323 C             1 RES     
    1582 O           32.5870    31.2852    76.3072 O             1 RES     
    1583 CH2         32.3760    33.4674    75.3129 CH2           1 RES     
    1584 CH2         32.5518    32.6106    74.0454 CH2           1 RES     
    1585 CH2         32.7268    33.5309    72.8230 CH2           1 RES     
    1586 CH2         32.9025    32.6741    71.5555 CH2           1 RES     
    1587 CH2         33.0775    33.5943    70.3332 CH2           1 RES     
    1588 CH2         33.2532    32.7376    69.0656 CH2           1 RES     
    1589 CH2         33.4282    33.6578    67.8433 CH2           1 RES     
    1590 CH2         33.6040    32.8010    66.5758 CH2           1 RES     
    1591 CH2         33.7789    33.7213    65.3534 CH2           1 RES     
    1592 CH2         33.9547    32.8645    64.0859 CH2           1 RES     
    1593 CH2         34.1296    33.7847    62.8635 CH2           1 RES     
    1594 CH2         34.3054    32.9280    61.5960 CH2           1 RES     
    1595 CH2         34.4803    33.8482    60.3737 CH2           1 RES     
    1596 CH2         34.6561    32.9914    59.1061 CH2           1 RES     
    1597 CH2         34.8310    33.9117    57.8838 CH2           1 RES     
    1598 CH2         35.0068    33.0549    56.6162 CH2           1 RES     
    1599 CH3         35.1738    33.9333    55.4495 CH3           1 RES     
    1600 CH2         34.0507    34.9749    76.8854 CH2           1 RES     
    1601 OE          33.8916    34.2253    75.6375 OE            1 RES     
    1602 C           35.2255    34.5380    75.0267 C             1 RES     
    1603 O           36.0871    35.2382    75.5560 O             1 RES     
    1604 CH2         35.1028    34.0262    73.7238 CH2           1 RES     
    1605 CH2         36.4227    34.4758    73.0701 CH2           1 RES     
    1606 CH2         36.3890    34.1481    71.5658 CH2           1 RES     
    1607 CH2         37.7089    34.5978    70.9120 CH2           1 RES     
    1608 CH2         37.6752    34.2701    69.4077 CH2           1 RES     
    1609 CH2         38.9951    34.7197    68.7540 CH2           1 RES     
    1610 CH2         38.9614    34.3920    67.2496 CH2           1 RES     
    1611 CH2         40.2813    34.8416    66.5959 CH2           1 RES     
    1612 CH2         40.2476    34.5140    65.0915 CH2           1 RES     
    1613 CH2         41.5675    34.9636    64.4378 CH2           1 RES     
    1614 CH2         41.5339    34.6359    62.9334 CH2           1 RES     
    1615 CH2         42.8537    35.0855    62.2797 CH2           1 RES     
    1616 CH2         42.8201    34.7578    60.7754 CH2           1 RES     
    1617 CH2         44.1399    35.2075    60.1217 CH2           1 RES     
    1618 CH2         44.1063    34.8798    58.6173 CH2           1 RES     
    1619 CH2         45.4262    35.3294    57.9636 CH2           1 RES     
    1620 CH3         45.3940    35.0166    56.5276 CH3           1 RES     
    1621 CH3         38.1727    15.3395    83.9290 CH3           1 RES     
    1622 CH3         35.8252    15.4893    83.9317 CH3           1 RES     
    1623 CH3         37.0388    16.7101    85.2807 CH3           1 RES     
    1624 NL          36.9908    16.1275    84.0937 NL            1 RES     
    1625 CH2         37.0691    17.2160    83.2291 CH2           1 RES     
    1626 CH2         37.0103    16.5056    81.8640 CH2           1 RES     
    1627 OA          37.0822    17.5144    80.7767 OA            1 RES     
    1628 P           35.5888    17.9648    80.4204 P             1 RES     
    1629 OM          34.8205    16.6571    79.9108 OM            1 RES     
    1630 OM          34.9757    18.6220    81.7441 OM            1 RES     
    1631 OA          35.6245    19.0545    79.2495 OA            1 RES     
    1632 CH2         34.2251    19.4481    78.9461 CH2           1 RES     
    1633 CH1         34.0634    19.8114    77.6474 CH1           1 RES     
    1634 OE          33.2091    18.6169    77.5821 OE            1 RES     
    1635 C           32.9446    17.8308    76.3323 C             1 RES     
    1636 O           32.6838    16.6290    76.3072 O             1 RES     
    1637 CH2         33.2708    18.7413    75.3129 CH2           1 RES     
    1638 CH2         33.1271    17.8786    74.0454 CH2           1 RES     
    1639 CH2         33.6209    18.6746    72.8230 CH2           1 RES     
    1640 CH2         33.4772    17.8119    71.5555 CH2           1 RES     
    1641 CH2         33.9710    18.6079    70.3332 CH2           1 RES     
    1642 CH2         33.8273    17.7451    69.0656 CH2           1 RES     
    1643 CH2         34.3211    18.5411    67.8433 CH2           1 RES     
    1644 CH2         34.1774    17.6784    66.5758 CH2           1 RES     
    1645 CH2         34.6712    18.4744    65.3534 CH2           1 RES     
    1646 CH2         34.5275    17.6116    64.0859 CH2           1 RES     
    1647 CH2         35.0213    18.4076    62.8635 CH2           1 RES     
    1648 CH2         34.8776    17.5449    61.5960 CH2           1 RES     
    1649 CH2         35.3714    18.3409    60.3737 CH2           1 RES     
    1650 CH2         35.2277    17.4782    59.1061 CH2           1 RES     
    1651 CH2         35.7215    18.2742    57.8838 CH2           1 RES     
    1652 CH2         35.5778    17.4114    56.6162 CH2           1 RES     
    1653 CH3         36.0492    18.1712    55.4495 CH3           1 RES     
    1654 CH2         35.3752    19.5467    76.8854 CH2           1 RES     
    1655 OE          34.9575    18.9043    75.6375 OE            1 RES     
    1656 C           36.3146    18.7170    75.0267 C             1 RES     
    1657 O           37.3703    19.0610    75.5560 O             1 RES     
    1658 CH2         36.0163    18.2834    73.7238 CH2           1 RES     
    1659 CH2         37.4096    18.2290    73.0701 CH2           1 RES     
    1660 CH2         37.2605    17.9352    71.5658 CH2           1 RES     
    1661 CH2         38.6538    17.8808    70.9120 CH2           1 RES     
    1662 CH2         38.5046    17.5871    69.4077 CH2           1 RES     
    1663 CH2         39.8979    17.5326    68.7540 CH2           1 RES     
    1664 CH2         39.7488    17.2389    67.2496 CH2           1 RES     
    1665 CH2         41.1421    17.1844    66.5959 CH2           1 RES     
    1666 CH2         40.9930    16.8907    65.0915 CH2           1 RES     
    1667 CH2         42.3863    16.8362    64.4378 CH2           1 RES     
    1668 CH2         42.2372    16.5425    62.9334 CH2           1 RES     
    1669 CH2         43.6305    16.4880    62.2797 CH2           1 RES     
    1670 CH2         43.4814    16.1943    60.7754 CH2           1 RES     
    1671 CH2         44.8747    16.1398    60.1217 CH2           1 RES     
    1672 CH2         44.7255    15.8461    58.6173 CH2           1 RES     
    1673 CH2         46.1188    15.7917    57.9636 CH2           1 RES     
    1674 CH3         45.9765    15.5113    56.5276 CH3           1 RES     
    1675 CH3         27.0302    43.1958    83.9290 CH3           1 RES     
    1676 CH3         24.8567    44.0954    83.9317 CH3           1 RES     
    1677 CH3         26.3994    44.8590    85.2807 CH3           1 RES     
    1678 NL          26.1659    44.3232    84.0937 NL            1 RES     
    1679 CH2         26.5915    45.3281    83.2291 CH2           1 RES     
    1680 CH2         26.3065    44.6747    81.8640 CH2           1 RES     
    1681 OA          26.7002    45.6063    80.7767 OA            1 RES     
    1682 P           25.4321    46.5146    80.4204 P             1 RES     
    1683 OM          24.2828    45.5250    79.9108 OM            1 RES     
    1684 OM          25.0640    47.3346    81.7441 OM            1 RES     
    1685 OA          25.8177    47.5345    79.2495 OA            1 RES     
    1686 CH2         24.6203    48.3588    78.9461 CH2           1 RES     
    1687 CH1         24.5844    48.7549    77.6474 CH1           1 RES     
    1688 OE          23.3903    47.9000    77.5821 OE            1 RES     
    1689 C           22.8862    47.2414    76.3323 C             1 RES     
    1690 O           22.2514    46.1882    76.3072 O             1 RES     
    1691 CH2         23.4889    47.9979    75.3129 CH2           1 RES     
    1692 CH2         23.0743    47.2278    74.0454 CH2           1 RES     
    1693 CH2         23.7987    47.8217    72.8230 CH2           1 RES     
    1694 CH2         23.3842    47.0516    71.5555 CH2           1 RES     
    1695 CH2         24.1085    47.6455    70.3332 CH2           1 RES     
    1696 CH2         23.6940    46.8754    69.0656 CH2           1 RES     
    1697 CH2         24.4183    47.4694    67.8433 CH2           1 RES     
    1698 CH2         24.0038    46.6992    66.5758 CH2           1 RES     
    1699 CH2         24.7281    47.2932    65.3534 CH2           1 RES     
    1700 CH2         24.3136    46.5230    64.0859 CH2           1 RES     
    1701 CH2         25.0380    47.1170    62.8635 CH2           1 RES     
    1702 CH2         24.6234    46.3468    61.5960 CH2           1 RES     
    1703 CH2         25.3478    46.9408    60.3737 CH2           1 RES     
    1704 CH2         24.9333    46.1706    59.1061 CH2           1 RES     
    1705 CH2         25.6576    46.7646    57.8838 CH2           1 RES     
    1706 CH2         25.2431    45.9945    56.6162 CH2           1 RES     
    1707 CH3         25.9345    46.5614    55.4495 CH3           1 RES     
    1708 CH2         25.7406    48.0808    76.8854 CH2           1 RES     
    1709 OE          25.1378    47.6077    75.6375 OE            1 RES     
    1710 C           26.3619    46.9923    75.0267 C             1 RES     
    1711 O           27.4721    46.9771    75.5560 O             1 RES     
    1712 CH2         25.9395    46.6782    73.7238 CH2           1 RES     
    1713 CH2         27.2407    46.1769    73.0701 CH2           1 RES     
    1714 CH2         27.0047    45.9471    71.5658 CH2           1 RES     
    1715 CH2         28.3058    45.4457    70.9120 CH2           1 RES     
    1716 CH2         28.0699    45.2159    69.4077 CH2           1 RES     
    1717 CH2         29.3710    44.7145    68.7540 CH2           1 RES     
    1718 CH2         29.1350    44.4847    67.2496 CH2           1 RES     
    1719 CH2         30.4362    43.9834    66.5959 CH2           1 RES     
    1720 CH2         30.2002    43.7535    65.0915 CH2           1 RES     
    1721 CH2         31.5013    43.2522    64.4378 CH2           1 RES     
    1722 CH2         31.2654    43.0223    62.9334 CH2           1 RES     
    1723 CH2         32.5665    42.5210    62.2797 CH2           1 RES     
    1724 CH2         32.3305    42.2911    60.7754 CH2           1 RES     
    1725 CH2         33.6317    41.7898    60.1217 CH2           1 RES     
    1726 CH2         33.3957    41.5599    58.6173 CH2           1 RES     
    1727 CH2         34.6968    41.0586    57.9636 CH2           1 RES     
    1728 CH3         34.4716    40.8392    56.5276 CH3           1 RES     
    1729 CH3         14.2061     4.6986    67.2155 CH3           1 RES     
    1730 CH2          9.7443     5.0871    80.2715 CH2           1 RES     
    1731 CH2         10.9338     5.0386    79.2947 CH2           1 RES     
    1732 CH2         10.4096     5.0187    77.8468 CH2           1 RES     
    1733 CH2         11.5991     4.9701    76.8699 CH2           1 RES     
    1734 CH2         11.0748     4.9503    75.4221 CH2           1 RES     
    1735 CH2         12.2644     4.9017    74.4452 CH2           1 RES     
    1736 CH2         11.7401     4.8819    72.9974 CH2           1 RES     
    1737 CH2         12.9297     4.8333    72.0205 CH2           1 RES     
    1738 CH2         12.4054     4.8134    70.5726 CH2           1 RES     
    1739 CH2         13.5949     4.7648    69.5958 CH2           1 RES     
    1740 CH2         13.0707     4.7450    68.1479 CH2           1 RES     
    1741 OA          10.2362     5.1058    81.6301 OA            1 RES     
    1742 H           10.3164     4.1970    81.9290 H             1 RES     
    1743 CH3         25.1640    11.0545    67.2155 CH3           1 RES     
    1744 CH2         20.7169    10.5227    80.2715 CH2           1 RES     
    1745 CH2         21.8913    10.7183    79.2947 CH2           1 RES     
    1746 CH2         21.3821    10.5917    77.8468 CH2           1 RES     
    1747 CH2         22.5565    10.7873    76.8699 CH2           1 RES     
    1748 CH2         22.0473    10.6607    75.4221 CH2           1 RES     
    1749 CH2         23.2217    10.8563    74.4452 CH2           1 RES     
    1750 CH2         22.7126    10.7297    72.9974 CH2           1 RES     
    1751 CH2         23.8869    10.9253    72.0205 CH2           1 RES     
    1752 CH2         23.3778    10.7987    70.5726 CH2           1 RES     
    1753 CH2         24.5521    10.9944    69.5958 CH2           1 RES     
    1754 CH2         24.0430    10.8678    68.1479 CH2           1 RES     
    1755 OA          21.1947    10.6414    81.6301 OA            1 RES     
    1756 H           21.4589     9.7683    81.9290 H             1 RES     
    1757 CH3         19.8084     9.8651    67.2155 CH3           1 RES     
    1758 CH2         15.4106    10.7128    80.2715 CH2           1 RES     
    1759 CH2         16.5888    10.5415    79.2947 CH2           1 RES     
    1760 CH2         16.0653    10.5759    77.8468 CH2           1 RES     
    1761 CH2         17.2434    10.4046    76.8699 CH2           1 RES     
    1762 CH2         16.7199    10.4391    75.4221 CH2           1 RES     
    1763 CH2         17.8981    10.2678    74.4452 CH2           1 RES     
    1764 CH2         17.3745    10.3023    72.9974 CH2           1 RES     
    1765 CH2         18.5527    10.1310    72.0205 CH2           1 RES     
    1766 CH2         18.0292    10.1654    70.5726 CH2           1 RES     
    1767 CH2         19.2073     9.9941    69.5958 CH2           1 RES     
    1768 CH2         18.6838    10.0286    68.1479 CH2           1 RES     
    1769 OA          15.9019    10.6804    81.6301 OA            1 RES     
    1770 H           15.8876     9.7683    81.9290 H             1 RES     
    1771 CH3         47.6135    38.2636    67.2155 CH3           1 RES     
    1772 CH2         43.1407    38.4939    80.2715 CH2           1 RES     
    1773 CH2         44.3312    38.4875    79.2947 CH2           1 RES     
    1774 CH2         43.8080    38.4491    77.8468 CH2           1 RES     
    1775 CH2         44.9985    38.4426    76.8699 CH2           1 RES     
    1776 CH2         44.4753    38.4042    75.4221 CH2           1 RES     
    1777 CH2         45.6658    38.3978    74.4452 CH2           1 RES     
    1778 CH2         45.1425    38.3594    72.9974 CH2           1 RES     
    1779 CH2         46.3331    38.3530    72.0205 CH2           1 RES     
    1780 CH2         45.8098    38.3146    70.5726 CH2           1 RES     
    1781 CH2         47.0003    38.3081    69.5958 CH2           1 RES     
    1782 CH2         46.4771    38.2697    68.1479 CH2           1 RES     
    1783 OA          43.6317    38.5299    81.6301 OA            1 RES     
    1784 H           43.7440    37.6246    81.9290 H             1 RES     
    1785 CH3         25.2227    30.9507    67.2155 CH3           1 RES     
    1786 CH2         21.2924    33.0983    80.2715 CH2           1 RES     
    1787 CH2         22.3623    32.5761    79.2947 CH2           1 RES     
    1788 CH2         21.8742    32.7684    77.8468 CH2           1 RES     
    1789 CH2         22.9441    32.2463    76.8699 CH2           1 RES     
    1790 CH2         22.4560    32.4386    75.4221 CH2           1 RES     
    1791 CH2         23.5259    31.9164    74.4452 CH2           1 RES     
    1792 CH2         23.0378    32.1088    72.9974 CH2           1 RES     
    1793 CH2         24.1077    31.5866    72.0205 CH2           1 RES     
    1794 CH2         23.6196    31.7790    70.5726 CH2           1 RES     
    1795 CH2         24.6895    31.2568    69.5958 CH2           1 RES     
    1796 CH2         24.2014    31.4492    68.1479 CH2           1 RES     
    1797 OA          21.7504    32.9178    81.6301 OA            1 RES     
    1798 H           21.4589    32.0533    81.9290 H             1 RES     
    1799 CH3         47.5624    25.5871    67.2155 CH3           1 RES     
    1800 CH2         43.5205    27.5163    80.2715 CH2           1 RES     
    1801 CH2         44.6174    27.0535    79.2947 CH2           1 RES     
    1802 CH2         44.1195    27.2188    77.8468 CH2           1 RES     
    1803 CH2         45.2164    26.7560    76.8699 CH2           1 RES     
    1804 CH2         44.7185    26.9214    75.4221 CH2           1 RES     
    1805 CH2         45.8154    26.4585    74.4452 CH2           1 RES     
    1806 CH2         45.3174    26.6239    72.9974 CH2           1 RES     
    1807 CH2         46.4143    26.1611    72.0205 CH2           1 RES     
    1808 CH2         45.9164    26.3264    70.5726 CH2           1 RES     
    1809 CH2         47.0133    25.8636    69.5958 CH2           1 RES     
    1810 CH2         46.5154    26.0289    68.1479 CH2           1 RES     
    1811 OA          43.9877    27.3612    81.6301 OA            1 RES     
    1812 H           43.7440    26.4821    81.9290 H             1 RES     
    1813 CH3         13.8000    22.7125    67.2155 CH3           1 RES     
    1814 CH2          9.4744    21.5516    80.2715 CH2           1 RES     
    1815 CH2         10.6088    21.9128    79.2947 CH2           1 RES     
    1816 CH2         10.1229    21.7148    77.8468 CH2           1 RES     
    1817 CH2         11.2574    22.0760    76.8699 CH2           1 RES     
    1818 CH2         10.7715    21.8780    75.4221 CH2           1 RES     
    1819 CH2         11.9059    22.2392    74.4452 CH2           1 RES     
    1820 CH2         11.4200    22.0413    72.9974 CH2           1 RES     
    1821 CH2         12.5545    22.4024    72.0205 CH2           1 RES     
    1822 CH2         12.0686    22.2045    70.5726 CH2           1 RES     
    1823 CH2         13.2030    22.5657    69.5958 CH2           1 RES     
    1824 CH2         12.7172    22.3677    68.1479 CH2           1 RES     
    1825 OA           9.9303    21.7373    81.6301 OA            1 RES     
    1826 H           10.3164    20.9108    81.9290 H             1 RES     
    1827 CH3         53.1653    25.7347    67.2155 CH3           1 RES     
    1828 CH2         49.0521    27.5070    80.2715 CH2           1 RES     
    1829 CH2         50.1660    27.0867    79.2947 CH2           1 RES     
    1830 CH2         49.6621    27.2328    77.8468 CH2           1 RES     
    1831 CH2         50.7760    26.8125    76.8699 CH2           1 RES     
    1832 CH2         50.2721    26.9585    75.4221 CH2           1 RES     
    1833 CH2         51.3860    26.5383    74.4452 CH2           1 RES     
    1834 CH2         50.8821    26.6843    72.9974 CH2           1 RES     
    1835 CH2         51.9960    26.2641    72.0205 CH2           1 RES     
    1836 CH2         51.4921    26.4101    70.5726 CH2           1 RES     
    1837 CH2         52.6060    25.9898    69.5958 CH2           1 RES     
    1838 CH2         52.1021    26.1359    68.1479 CH2           1 RES     
    1839 OA          49.5249    27.3699    81.6301 OA            1 RES     
    1840 H           49.3152    26.4821    81.9290 H             1 RES     
    1841 CH3         19.6734    21.9354    67.2155 CH3           1 RES     
    1842 CH2         15.2001    21.7151    80.2715 CH2           1 RES     
    1843 CH2         16.3852    21.8283    79.2947 CH2           1 RES     
    1844 CH2         15.8685    21.7375    77.8468 CH2           1 RES     
    1845 CH2         17.0537    21.8508    76.8699 CH2           1 RES     
    1846 CH2         16.5369    21.7600    75.4221 CH2           1 RES     
    1847 CH2         17.7221    21.8732    74.4452 CH2           1 RES     
    1848 CH2         17.2053    21.7824    72.9974 CH2           1 RES     
    1849 CH2         18.3905    21.8956    72.0205 CH2           1 RES     
    1850 CH2         17.8737    21.8049    70.5726 CH2           1 RES     
    1851 CH2         19.0589    21.9181    69.5958 CH2           1 RES     
    1852 CH2         18.5421    21.8273    68.1479 CH2           1 RES     
    1853 OA          15.6850    21.8003    81.6301 OA            1 RES     
    1854 H           15.8876    20.9108    81.9290 H             1 RES     
    1855 CH3         42.0176    10.5421    67.2155 CH3           1 RES     
    1856 CH2         37.5394    10.6160    80.2715 CH2           1 RES     
    1857 CH2         38.7295    10.6511    79.2947 CH2           1 RES     
    1858 CH2         38.2079    10.5945    77.8468 CH2           1 RES     
    1859 CH2         39.3979    10.6296    76.8699 CH2           1 RES     
    1860 CH2         38.8763    10.5730    75.4221 CH2           1 RES     
    1861 CH2         40.0663    10.6082    74.4452 CH2           1 RES     
    1862 CH2         39.5448    10.5515    72.9974 CH2           1 RES     
    1863 CH2         40.7348    10.5867    72.0205 CH2           1 RES     
    1864 CH2         40.2132    10.5300    70.5726 CH2           1 RES     
    1865 CH2         41.4032    10.5652    69.5958 CH2           1 RES     
    1866 CH2         40.8816    10.5085    68.1479 CH2           1 RES     
    1867 OA          38.0288    10.6691    81.6301 OA            1 RES     
    1868 H           38.1727     9.7683    81.9290 H             1 RES     
    1869 CH3         41.5800    22.8529    67.2155 CH3           1 RES     
    1870 CH2         37.3053    21.5168    80.2715 CH2           1 RES     
    1871 CH2         38.4240    21.9238    79.2947 CH2           1 RES     
    1872 CH2         37.9466    21.7063    77.8468 CH2           1 RES     
    1873 CH2         39.0654    22.1134    76.8699 CH2           1 RES     
    1874 CH2         38.5880    21.8958    75.4221 CH2           1 RES     
    1875 CH2         39.7068    22.3029    74.4452 CH2           1 RES     
    1876 CH2         39.2294    22.0853    72.9974 CH2           1 RES     
    1877 CH2         40.3482    22.4924    72.0205 CH2           1 RES     
    1878 CH2         39.8707    22.2748    70.5726 CH2           1 RES     
    1879 CH2         40.9895    22.6819    69.5958 CH2           1 RES     
    1880 CH2         40.5121    22.4643    68.1479 CH2           1 RES     
    1881 OA          37.7532    21.7209    81.6301 OA            1 RES     
    1882 H           38.1727    20.9108    81.9290 H             1 RES     
    1883 CH3         36.1676    11.4005    67.2155 CH3           1 RES     
    1884 CH2         31.7912    10.4488    80.2715 CH2           1 RES     
    1885 CH2         32.9416    10.7550    79.2947 CH2           1 RES     
    1886 CH2         32.4468    10.5807    77.8468 CH2           1 RES     
    1887 CH2         33.5973    10.8869    76.8699 CH2           1 RES     
    1888 CH2         33.1025    10.7125    75.4221 CH2           1 RES     
    1889 CH2         34.2529    11.0188    74.4452 CH2           1 RES     
    1890 CH2         33.7581    10.8444    72.9974 CH2           1 RES     
    1891 CH2         34.9086    11.1507    72.0205 CH2           1 RES     
    1892 CH2         34.4138    10.9763    70.5726 CH2           1 RES     
    1893 CH2         35.5643    11.2826    69.5958 CH2           1 RES     
    1894 CH2         35.0694    11.1082    68.1479 CH2           1 RES     
    1895 OA          32.2555    10.6124    81.6301 OA            1 RES     
    1896 H           32.6014     9.7683    81.9290 H             1 RES     
    1897 CH3         30.8342    36.6702    67.2155 CH3           1 RES     
    1898 CH2         26.8229    38.6622    80.2715 CH2           1 RES     
    1899 CH2         27.9124    38.1823    79.2947 CH2           1 RES     
    1900 CH2         27.4171    38.3554    77.8468 CH2           1 RES     
    1901 CH2         28.5067    37.8755    76.8699 CH2           1 RES     
    1902 CH2         28.0114    38.0486    75.4221 CH2           1 RES     
    1903 CH2         29.1010    37.5688    74.4452 CH2           1 RES     
    1904 CH2         28.6057    37.7419    72.9974 CH2           1 RES     
    1905 CH2         29.6952    37.2620    72.0205 CH2           1 RES     
    1906 CH2         29.2000    37.4351    70.5726 CH2           1 RES     
    1907 CH2         30.2895    36.9552    69.5958 CH2           1 RES     
    1908 CH2         29.7942    37.1283    68.1479 CH2           1 RES     
    1909 OA          27.2876    38.4998    81.6301 OA            1 RES     
    1910 H           27.0302    37.6246    81.9290 H             1 RES     
    1911 CH3         47.6549     9.4740    67.2155 CH3           1 RES     
    1912 CH2         43.3634    10.7556    80.2715 CH2           1 RES     
    1913 CH2         44.5186    10.4678    79.2947 CH2           1 RES     
    1914 CH2         44.0011    10.5542    77.8468 CH2           1 RES     
    1915 CH2         45.1564    10.2664    76.8699 CH2           1 RES     
    1916 CH2         44.6389    10.3529    75.4221 CH2           1 RES     
    1917 CH2         45.7941    10.0650    74.4452 CH2           1 RES     
    1918 CH2         45.2766    10.1515    72.9974 CH2           1 RES     
    1919 CH2         46.4319     9.8637    72.0205 CH2           1 RES     
    1920 CH2         45.9144     9.9501    70.5726 CH2           1 RES     
    1921 CH2         47.0696     9.6623    69.5958 CH2           1 RES     
    1922 CH2         46.5521     9.7487    68.1479 CH2           1 RES     
    1923 OA          43.8490    10.6745    81.6301 OA            1 RES     
    1924 H           43.7440     9.7683    81.9290 H             1 RES     
    1925 CH3         30.1465     6.5783    67.2155 CH3           1 RES     
    1926 CH2         26.0893     4.6812    80.2715 CH2           1 RES     
    1927 CH2         27.1435     5.2346    79.2947 CH2           1 RES     
    1928 CH2         26.6995     4.9550    77.8468 CH2           1 RES     
    1929 CH2         27.7537     5.5084    76.8699 CH2           1 RES     
    1930 CH2         27.3097     5.2288    75.4221 CH2           1 RES     
    1931 CH2         28.3638     5.7821    74.4452 CH2           1 RES     
    1932 CH2         27.9199     5.5025    72.9974 CH2           1 RES     
    1933 CH2         28.9740     6.0559    72.0205 CH2           1 RES     
    1934 CH2         28.5301     5.7763    70.5726 CH2           1 RES     
    1935 CH2         29.5842     6.3297    69.5958 CH2           1 RES     
    1936 CH2         29.1403     6.0501    68.1479 CH2           1 RES     
    1937 OA          26.5059     4.9436    81.6301 OA            1 RES     
    1938 H           27.0302     4.1970    81.9290 H             1 RES     
    1939 CH3         47.0048     6.3761    67.2155 CH3           1 RES     
    1940 CH2         42.8357     4.7399    80.2715 CH2           1 RES     
    1941 CH2         43.9227     5.2253    79.2947 CH2           1 RES     
    1942 CH2         43.4620     4.9744    77.8468 CH2           1 RES     
    1943 CH2         44.5490     5.4599    76.8699 CH2           1 RES     
    1944 CH2         44.0883     5.2090    75.4221 CH2           1 RES     
    1945 CH2         45.1753     5.6945    74.4452 CH2           1 RES     
    1946 CH2         44.7146     5.4436    72.9974 CH2           1 RES     
    1947 CH2         45.8017     5.9290    72.0205 CH2           1 RES     
    1948 CH2         45.3409     5.6781    70.5726 CH2           1 RES     
    1949 CH2         46.4280     6.1636    69.5958 CH2           1 RES     
    1950 CH2         45.9672     5.9127    68.1479 CH2           1 RES     
    1951 OA          43.2680     4.9753    81.6301 OA            1 RES     
    1952 H           43.7440     4.1970    81.9290 H             1 RES     
    1953 CH3         35.5608    23.4845    67.2155 CH3           1 RES     
    1954 CH2         31.6319    21.3345    80.2715 CH2           1 RES     
    1955 CH2         32.6489    21.9535    79.2947 CH2           1 RES     
    1956 CH2         32.2235    21.6464    77.8468 CH2           1 RES     
    1957 CH2         33.2405    22.2653    76.8699 CH2           1 RES     
    1958 CH2         32.8151    21.9582    75.4221 CH2           1 RES     
    1959 CH2         33.8321    22.5771    74.4452 CH2           1 RES     
    1960 CH2         33.4068    22.2700    72.9974 CH2           1 RES     
    1961 CH2         34.4238    22.8889    72.0205 CH2           1 RES     
    1962 CH2         33.9984    22.5818    70.5726 CH2           1 RES     
    1963 CH2         35.0154    23.2008    69.5958 CH2           1 RES     
    1964 CH2         34.5901    22.8936    68.1479 CH2           1 RES     
    1965 OA          32.0310    21.6227    81.6301 OA            1 RES     
    1966 H           32.6014    20.9108    81.9290 H             1 RES     
    1967 CH3         47.0920    22.9535    67.2155 CH3           1 RES     
    1968 CH2         42.8589    21.4907    80.2715 CH2           1 RES     
    1969 CH2         43.9650    21.9309    79.2947 CH2           1 RES     
    1970 CH2         43.4943    21.6992    77.8468 CH2           1 RES     
    1971 CH2         44.6005    22.1394    76.8699 CH2           1 RES     
    1972 CH2         44.1298    21.9077    75.4221 CH2           1 RES     
    1973 CH2         45.2359    22.3479    74.4452 CH2           1 RES     
    1974 CH2         44.7652    22.1162    72.9974 CH2           1 RES     
    1975 CH2         45.8714    22.5564    72.0205 CH2           1 RES     
    1976 CH2         45.4006    22.3248    70.5726 CH2           1 RES     
    1977 CH2         46.5068    22.7650    69.5958 CH2           1 RES     
    1978 CH2         46.0361    22.5333    68.1479 CH2           1 RES     
    1979 OA          43.3005    21.7081    81.6301 OA            1 RES     
    1980 H           43.7440    20.9108    81.9290 H             1 RES     
    1981 CH3         35.7356    39.9823    67.2155 CH3           1 RES     
    1982 CH2         31.6643    38.1159    80.2715 CH2           1 RES     
    1983 CH2         32.7225    38.6613    79.2947 CH2           1 RES     
    1984 CH2         32.2765    38.3850    77.8468 CH2           1 RES     
    1985 CH2         33.3348    38.9304    76.8699 CH2           1 RES     
    1986 CH2         32.8887    38.6542    75.4221 CH2           1 RES     
    1987 CH2         33.9470    39.1996    74.4452 CH2           1 RES     
    1988 CH2         33.5010    38.9234    72.9974 CH2           1 RES     
    1989 CH2         34.5592    39.4688    72.0205 CH2           1 RES     
    1990 CH2         34.1132    39.1925    70.5726 CH2           1 RES     
    1991 CH2         35.1715    39.7379    69.5958 CH2           1 RES     
    1992 CH2         34.7254    39.4617    68.1479 CH2           1 RES     
    1993 OA          32.0828    38.3751    81.6301 OA            1 RES     
    1994 H           32.6014    37.6246    81.9290 H             1 RES     
    1995 CH3         24.5489    28.8974    67.2155 CH3           1 RES     
    1996 CH2         20.5128    26.9559    80.2715 CH2           1 RES     
    1997 CH2         21.5608    27.5208    79.2947 CH2           1 RES     
    1998 CH2         21.1200    27.2364    77.8468 CH2           1 RES     
    1999 CH2         22.1679    27.8013    76.8699 CH2           1 RES     
    2000 CH2         21.7271    27.5168    75.4221 CH2           1 RES     
    2001 CH2         22.7751    28.0817    74.4452 CH2           1 RES     
    2002 CH2         22.3342    27.7973    72.9974 CH2           1 RES     
    2003 CH2         23.3822    28.3622    72.0205 CH2           1 RES     
    2004 CH2         22.9414    28.0777    70.5726 CH2           1 RES     
    2005 CH2         23.9894    28.6427    69.5958 CH2           1 RES     
    2006 CH2         23.5485    28.3582    68.1479 CH2           1 RES     
    2007 OA          20.9265    27.2228    81.6301 OA            1 RES     
    2008 H           21.4589    26.4821    81.9290 H             1 RES     
    2009 CH3         30.9233    26.0071    67.2155 CH3           1 RES     
    2010 CH2         26.6957    27.4859    80.2715 CH2           1 RES     
    2011 CH2         27.8364    27.1450    79.2947 CH2           1 RES     
    2012 CH2         27.3235    27.2553    77.8468 CH2           1 RES     
    2013 CH2         28.4641    26.9143    76.8699 CH2           1 RES     
    2014 CH2         27.9512    27.0246    75.4221 CH2           1 RES     
    2015 CH2         29.0919    26.6836    74.4452 CH2           1 RES     
    2016 CH2         28.5790    26.7939    72.9974 CH2           1 RES     
    2017 CH2         29.7196    26.4530    72.0205 CH2           1 RES     
    2018 CH2         29.2067    26.5633    70.5726 CH2           1 RES     
    2019 CH2         30.3474    26.2223    69.5958 CH2           1 RES     
    2020 CH2         29.8345    26.3326    68.1479 CH2           1 RES     
    2021 OA          27.1770    27.3824    81.6301 OA            1 RES     
    2022 H           27.0302    26.4821    81.9290 H             1 RES     
    2023 CH3         52.8001    22.7101    67.2155 CH3           1 RES     
    2024 CH2         48.4736    21.5522    80.2715 CH2           1 RES     
    2025 CH2         49.6083    21.9126    79.2947 CH2           1 RES     
    2026 CH2         49.1223    21.7149    77.8468 CH2           1 RES     
    2027 CH2         50.2570    22.0753    76.8699 CH2           1 RES     
    2028 CH2         49.7710    21.8777    75.4221 CH2           1 RES     
    2029 CH2         50.9057    22.2381    74.4452 CH2           1 RES     
    2030 CH2         50.4196    22.0405    72.9974 CH2           1 RES     
    2031 CH2         51.5543    22.4009    72.0205 CH2           1 RES     
    2032 CH2         51.0683    22.2033    70.5726 CH2           1 RES     
    2033 CH2         52.2030    22.5637    69.5958 CH2           1 RES     
    2034 CH2         51.7170    22.3661    68.1479 CH2           1 RES     
    2035 OA          48.9297    21.7376    81.6301 OA            1 RES     
    2036 H           49.3152    20.9108    81.9290 H             1 RES     
    2037 CH3         53.2037    37.1136    67.2155 CH3           1 RES     
    2038 CH2         48.9901    38.6315    80.2715 CH2           1 RES     
    2039 CH2         50.1275    38.2800    79.2947 CH2           1 RES     
    2040 CH2         49.6156    38.3950    77.8468 CH2           1 RES     
    2041 CH2         50.7531    38.0435    76.8699 CH2           1 RES     
    2042 CH2         50.2412    38.1586    75.4221 CH2           1 RES     
    2043 CH2         51.3787    37.8071    74.4452 CH2           1 RES     
    2044 CH2         50.8668    37.9221    72.9974 CH2           1 RES     
    2045 CH2         52.0043    37.5706    72.0205 CH2           1 RES     
    2046 CH2         51.4924    37.6856    70.5726 CH2           1 RES     
    2047 CH2         52.6299    37.3341    69.5958 CH2           1 RES     
    2048 CH2         52.1180    37.4492    68.1479 CH2           1 RES     
    2049 OA          49.4704    38.5236    81.6301 OA            1 RES     
    2050 H           49.3152    37.6246    81.9290 H             1 RES     
    2051 CH3         14.2267    43.4975    67.2155 CH3           1 RES     
    2052 CH2          9.7907    44.1141    80.2715 CH2           1 RES     
    2053 CH2         10.9761    44.0046    79.2947 CH2           1 RES     
    2054 CH2         10.4515    44.0117    77.8468 CH2           1 RES     
    2055 CH2         11.6370    43.9022    76.8699 CH2           1 RES     
    2056 CH2         11.1124    43.9093    75.4221 CH2           1 RES     
    2057 CH2         12.2979    43.7998    74.4452 CH2           1 RES     
    2058 CH2         11.7733    43.8068    72.9974 CH2           1 RES     
    2059 CH2         12.9588    43.6973    72.0205 CH2           1 RES     
    2060 CH2         12.4342    43.7044    70.5726 CH2           1 RES     
    2061 CH2         13.6197    43.5949    69.5958 CH2           1 RES     
    2062 CH2         13.0951    43.6020    68.1479 CH2           1 RES     
    2063 OA          10.2829    44.1075    81.6301 OA            1 RES     
    2064 H           10.3164    43.1958    81.9290 H             1 RES     
    2065 CH3         30.6986    22.2981    67.2155 CH3           1 RES     
    2066 CH2         26.2678    21.6445    80.2715 CH2           1 RES     
    2067 CH2         27.4363    21.8723    79.2947 CH2           1 RES     
    2068 CH2         26.9308    21.7318    77.8468 CH2           1 RES     
    2069 CH2         28.0994    21.9595    76.8699 CH2           1 RES     
    2070 CH2         27.5939    21.8190    75.4221 CH2           1 RES     
    2071 CH2         28.7625    22.0468    74.4452 CH2           1 RES     
    2072 CH2         28.2570    21.9062    72.9974 CH2           1 RES     
    2073 CH2         29.4255    22.1340    72.0205 CH2           1 RES     
    2074 CH2         28.9201    21.9935    70.5726 CH2           1 RES     
    2075 CH2         30.0886    22.2212    69.5958 CH2           1 RES     
    2076 CH2         29.5831    22.0807    68.1479 CH2           1 RES     
    2077 OA          26.7421    21.7764    81.6301 OA            1 RES     
    2078 H           27.0302    20.9108    81.9290 H             1 RES     
    2079 CH3         47.2633    44.9268    67.2155 CH3           1 RES     
    2080 CH2         42.9150    43.8535    80.2715 CH2           1 RES     
    2081 CH2         44.0565    44.1917    79.2947 CH2           1 RES     
    2082 CH2         43.5668    44.0036    77.8468 CH2           1 RES     
    2083 CH2         44.7083    44.3418    76.8699 CH2           1 RES     
    2084 CH2         44.2185    44.1537    75.4221 CH2           1 RES     
    2085 CH2         45.3600    44.4919    74.4452 CH2           1 RES     
    2086 CH2         44.8702    44.3038    72.9974 CH2           1 RES     
    2087 CH2         46.0117    44.6420    72.0205 CH2           1 RES     
    2088 CH2         45.5219    44.4539    70.5726 CH2           1 RES     
    2089 CH2         46.6634    44.7921    69.5958 CH2           1 RES     
    2090 CH2         46.1737    44.6040    68.1479 CH2           1 RES     
    2091 OA          43.3746    44.0300    81.6301 OA            1 RES     
    2092 H           43.7440    43.1958    81.9290 H             1 RES     
    2093 CH3         14.0547    10.9542    67.2155 CH3           1 RES     
    2094 CH2          9.5950    10.5424    80.2715 CH2           1 RES     
    2095 CH2         10.7742    10.7063    79.2947 CH2           1 RES     
    2096 CH2         10.2618    10.5934    77.8468 CH2           1 RES     
    2097 CH2         11.4410    10.7574    76.8699 CH2           1 RES     
    2098 CH2         10.9287    10.6445    75.4221 CH2           1 RES     
    2099 CH2         12.1079    10.8084    74.4452 CH2           1 RES     
    2100 CH2         11.5955    10.6956    72.9974 CH2           1 RES     
    2101 CH2         12.7747    10.8595    72.0205 CH2           1 RES     
    2102 CH2         12.2623    10.7467    70.5726 CH2           1 RES     
    2103 CH2         13.4415    10.9106    69.5958 CH2           1 RES     
    2104 CH2         12.9291    10.7978    68.1479 CH2           1 RES     
    2105 OA          10.0757    10.6482    81.6301 OA            1 RES     
    2106 H           10.3164     9.7683    81.9290 H             1 RES     
    2107 CH3         30.5251    11.5480    67.2155 CH3           1 RES     
    2108 CH2         26.1922    10.4143    80.2715 CH2           1 RES     
    2109 CH2         27.3289    10.7684    79.2947 CH2           1 RES     
    2110 CH2         26.8418    10.5735    77.8468 CH2           1 RES     
    2111 CH2         27.9784    10.9275    76.8699 CH2           1 RES     
    2112 CH2         27.4913    10.7326    75.4221 CH2           1 RES     
    2113 CH2         28.6280    11.0867    74.4452 CH2           1 RES     
    2114 CH2         28.1409    10.8918    72.9974 CH2           1 RES     
    2115 CH2         29.2776    11.2458    72.0205 CH2           1 RES     
    2116 CH2         28.7905    11.0509    70.5726 CH2           1 RES     
    2117 CH2         29.9272    11.4050    69.5958 CH2           1 RES     
    2118 CH2         29.4401    11.2101    68.1479 CH2           1 RES     
    2119 OA          26.6492    10.5972    81.6301 OA            1 RES     
    2120 H           27.0302     9.7683    81.9290 H             1 RES     
    2121 CH3         36.3104    16.6144    67.2155 CH3           1 RES     
    2122 CH2         31.8618    16.0962    80.2715 CH2           1 RES     
    2123 CH2         33.0367    16.2882    79.2947 CH2           1 RES     
    2124 CH2         32.5272    16.1632    77.8468 CH2           1 RES     
    2125 CH2         33.7021    16.3552    76.8699 CH2           1 RES     
    2126 CH2         33.1926    16.2301    75.4221 CH2           1 RES     
    2127 CH2         34.3676    16.4222    74.4452 CH2           1 RES     
    2128 CH2         33.8580    16.2971    72.9974 CH2           1 RES     
    2129 CH2         35.0330    16.4891    72.0205 CH2           1 RES     
    2130 CH2         34.5235    16.3641    70.5726 CH2           1 RES     
    2131 CH2         35.6984    16.5561    69.5958 CH2           1 RES     
    2132 CH2         35.1889    16.4311    68.1479 CH2           1 RES     
    2133 OA          32.3399    16.2135    81.6301 OA            1 RES     
    2134 H           32.6014    15.3395    81.9290 H             1 RES     
    2135 CH3         53.2358    43.3008    67.2155 CH3           1 RES     
    2136 CH2         48.8362    44.1394    80.2715 CH2           1 RES     
    2137 CH2         50.0147    43.9705    79.2947 CH2           1 RES     
    2138 CH2         49.4912    44.0039    77.8468 CH2           1 RES     
    2139 CH2         50.6697    43.8350    76.8699 CH2           1 RES     
    2140 CH2         50.1461    43.8684    75.4221 CH2           1 RES     
    2141 CH2         51.3246    43.6995    74.4452 CH2           1 RES     
    2142 CH2         50.8010    43.7329    72.9974 CH2           1 RES     
    2143 CH2         51.9795    43.5641    72.0205 CH2           1 RES     
    2144 CH2         51.4559    43.5974    70.5726 CH2           1 RES     
    2145 CH2         52.6344    43.4286    69.5958 CH2           1 RES     
    2146 CH2         52.1108    43.4620    68.1479 CH2           1 RES     
    2147 OA          49.3275    44.1080    81.6301 OA            1 RES     
    2148 H           49.3152    43.1958    81.9290 H             1 RES     
    2149 CH3         24.7479    23.0472    67.2155 CH3           1 RES     
    2150 CH2         20.5578    21.4654    80.2715 CH2           1 RES     
    2151 CH2         21.6511    21.9367    79.2947 CH2           1 RES     
    2152 CH2         21.1871    21.6918    77.8468 CH2           1 RES     
    2153 CH2         22.2804    22.1631    76.8699 CH2           1 RES     
    2154 CH2         21.8164    21.9182    75.4221 CH2           1 RES     
    2155 CH2         22.9097    22.3895    74.4452 CH2           1 RES     
    2156 CH2         22.4457    22.1446    72.9974 CH2           1 RES     
    2157 CH2         23.5390    22.6159    72.0205 CH2           1 RES     
    2158 CH2         23.0750    22.3710    70.5726 CH2           1 RES     
    2159 CH2         24.1683    22.8423    69.5958 CH2           1 RES     
    2160 CH2         23.7043    22.5974    68.1479 CH2           1 RES     
    2161 OA          20.9932    21.6952    81.6301 OA            1 RES     
    2162 H           21.4589    20.9108    81.9290 H             1 RES     
    2163 CH3         52.9970    16.6909    67.2155 CH3           1 RES     
    2164 CH2         48.5600    16.0807    80.2715 CH2           1 RES     
    2165 CH2         49.7308    16.2970    79.2947 CH2           1 RES     
    2166 CH2         49.2239    16.1615    77.8468 CH2           1 RES     
    2167 CH2         50.3947    16.3777    76.8699 CH2           1 RES     
    2168 CH2         49.8878    16.2422    75.4221 CH2           1 RES     
    2169 CH2         51.0586    16.4585    74.4452 CH2           1 RES     
    2170 CH2         50.5517    16.3229    72.9974 CH2           1 RES     
    2171 CH2         51.7224    16.5392    72.0205 CH2           1 RES     
    2172 CH2         51.2156    16.4037    70.5726 CH2           1 RES     
    2173 CH2         52.3863    16.6200    69.5958 CH2           1 RES     
    2174 CH2         51.8795    16.4844    68.1479 CH2           1 RES     
    2175 OA          49.0356    16.2079    81.6301 OA            1 RES     
    2176 H           49.3152    15.3395    81.9290 H             1 RES     
    2177 CH3          7.9587    26.4821    33.6361 CH3           1 RES     
    2178 CH3          9.8176    27.9235    33.6334 CH3           1 RES     
    2179 CH3          8.1280    28.2527    32.2844 CH3           1 RES     
    2180 NL           8.4947    27.7976    33.4714 NL            1 RES     
    2181 CH2          7.8189    28.6545    34.3361 CH2           1 RES     
    2182 CH2          8.2663    28.0995    35.7011 CH2           1 RES     
    2183 OA           7.6406    28.8941    36.7885 OA            1 RES     
    2184 P            8.6239    30.1050    37.1447 P             1 RES     
    2185 OM           9.9937    29.4539    37.6543 OM            1 RES     
    2186 OM           8.7625    30.9930    35.8210 OM            1 RES     
    2187 OA           7.9827    30.9869    38.3157 OA            1 RES     
    2188 CH2          8.9200    32.0980    38.6191 CH2           1 RES     
    2189 CH1          8.8500    32.4895    39.9178 CH1           1 RES     
    2190 OE          10.2274    31.9803    39.9830 OE            1 RES     
    2191 C           10.8876    31.4782    41.2329 C             1 RES     
    2192 O           11.7779    30.6299    41.2579 O             1 RES     
    2193 CH2         10.1065    32.0487    42.2522 CH2           1 RES     
    2194 CH2         10.7097    31.4153    43.5197 CH2           1 RES     
    2195 CH2          9.8542    31.7970    44.7421 CH2           1 RES     
    2196 CH2         10.4574    31.1636    46.0096 CH2           1 RES     
    2197 CH2          9.6019    31.5452    47.2320 CH2           1 RES     
    2198 CH2         10.2051    30.9119    48.4995 CH2           1 RES     
    2199 CH2          9.3496    31.2935    49.7218 CH2           1 RES     
    2200 CH2          9.9528    30.6601    50.9894 CH2           1 RES     
    2201 CH2          9.0973    31.0418    52.2117 CH2           1 RES     
    2202 CH2          9.7004    30.4084    53.4793 CH2           1 RES     
    2203 CH2          8.8450    30.7901    54.7016 CH2           1 RES     
    2204 CH2          9.4481    30.1567    55.9691 CH2           1 RES     
    2205 CH2          8.5927    30.5383    57.1915 CH2           1 RES     
    2206 CH2          9.1958    29.9049    58.4590 CH2           1 RES     
    2207 CH2          8.3404    30.2866    59.6814 CH2           1 RES     
    2208 CH2          8.9435    29.6532    60.9489 CH2           1 RES     
    2209 CH3          8.1270    30.0175    62.1157 CH3           1 RES     
    2210 CH2          7.9129    31.5342    40.6798 CH2           1 RES     
    2211 OE           8.6191    31.2369    41.9277 OE            1 RES     
    2212 C            7.6009    30.3202    42.5384 C             1 RES     
    2213 O            6.5342    30.0125    42.0091 O             1 RES     
    2214 CH2          8.0912    30.1288    43.8413 CH2           1 RES     
    2215 CH2          6.9686    29.3018    44.4950 CH2           1 RES     
    2216 CH2          7.2569    29.1424    45.9994 CH2           1 RES     
    2217 CH2          6.1343    28.3153    46.6531 CH2           1 RES     
    2218 CH2          6.4226    28.1559    48.1575 CH2           1 RES     
    2219 CH2          5.3000    27.3289    48.8112 CH2           1 RES     
    2220 CH2          5.5883    27.1694    50.3155 CH2           1 RES     
    2221 CH2          4.4657    26.3424    50.9693 CH2           1 RES     
    2222 CH2          4.7539    26.1830    52.4736 CH2           1 RES     
    2223 CH2          3.6313    25.3559    53.1273 CH2           1 RES     
    2224 CH2          3.9196    25.1965    54.6317 CH2           1 RES     
    2225 CH2          2.7970    24.3695    55.2854 CH2           1 RES     
    2226 CH2          3.0853    24.2101    56.7898 CH2           1 RES     
    2227 CH2          1.9627    23.3830    57.4435 CH2           1 RES     
    2228 CH2          2.2510    23.2236    58.9478 CH2           1 RES     
    2229 CH2          1.1284    22.3965    59.6016 CH2           1 RES     
    2230 CH3          1.4035    22.2444    61.0375 CH3           1 RES     
    2231 CH3         46.9575    37.6246    33.6361 CH3           1 RES     
    2232 CH3         49.3097    37.6007    33.6334 CH3           1 RES     
    2233 CH3         48.1894    38.9077    32.2844 CH3           1 RES     
    2234 NL          48.1943    38.3232    33.4714 NL            1 RES     
    2235 CH2         48.1965    39.4146    34.3361 CH2           1 RES     
    2236 CH2         48.2028    38.7017    35.7011 CH2           1 RES     
    2237 OA          48.2055    39.7131    36.7885 OA            1 RES     
    2238 P           49.7280    40.0520    37.1447 P             1 RES     
    2239 OM          50.3978    38.6912    37.6543 OM            1 RES     
    2240 OM          50.3880    40.6622    35.8210 OM            1 RES     
    2241 OA          49.7728    41.1414    38.3157 OA            1 RES     
    2242 CH2         51.1974    41.4307    38.6191 CH2           1 RES     
    2243 CH1         51.3856    41.7811    39.9178 CH1           1 RES     
    2244 OE          52.1493    40.5268    39.9830 OE            1 RES     
    2245 C           52.3552    39.7234    41.2329 C             1 RES     
    2246 O           52.5266    38.5056    41.2579 O             1 RES     
    2247 CH2         52.0970    40.6555    42.2522 CH2           1 RES     
    2248 CH2         52.1767    39.7845    43.5197 CH2           1 RES     
    2249 CH2         51.7429    40.6148    44.7421 CH2           1 RES     
    2250 CH2         51.8226    39.7438    46.0096 CH2           1 RES     
    2251 CH2         51.3889    40.5740    47.2320 CH2           1 RES     
    2252 CH2         51.4685    39.7031    48.4995 CH2           1 RES     
    2253 CH2         51.0348    40.5333    49.7218 CH2           1 RES     
    2254 CH2         51.1145    39.6623    50.9894 CH2           1 RES     
    2255 CH2         50.6807    40.4926    52.2117 CH2           1 RES     
    2256 CH2         50.7604    39.6216    53.4793 CH2           1 RES     
    2257 CH2         50.3266    40.4519    54.7016 CH2           1 RES     
    2258 CH2         50.4063    39.5809    55.9691 CH2           1 RES     
    2259 CH2         49.9726    40.4111    57.1915 CH2           1 RES     
    2260 CH2         50.0522    39.5401    58.4590 CH2           1 RES     
    2261 CH2         49.6185    40.3704    59.6814 CH2           1 RES     
    2262 CH2         49.6982    39.4994    60.9489 CH2           1 RES     
    2263 CH3         49.2841    40.2919    62.1157 CH3           1 RES     
    2264 CH2         50.0578    41.6139    40.6798 CH2           1 RES     
    2265 OE          50.4270    40.9424    41.9277 OE            1 RES     
    2266 C           49.0597    40.8558    42.5384 C             1 RES     
    2267 O           48.0323    41.2767    42.0091 O             1 RES     
    2268 CH2         49.3252    40.4014    43.8413 CH2           1 RES     
    2269 CH2         47.9317    40.4498    44.4950 CH2           1 RES     
    2270 CH2         48.0588    40.1459    45.9994 CH2           1 RES     
    2271 CH2         46.6653    40.1944    46.6531 CH2           1 RES     
    2272 CH2         46.7923    39.8905    48.1575 CH2           1 RES     
    2273 CH2         45.3988    39.9389    48.8112 CH2           1 RES     
    2274 CH2         45.5258    39.6350    50.3155 CH2           1 RES     
    2275 CH2         44.1323    39.6835    50.9693 CH2           1 RES     
    2276 CH2         44.2593    39.3795    52.4736 CH2           1 RES     
    2277 CH2         42.8658    39.4280    53.1273 CH2           1 RES     
    2278 CH2         42.9929    39.1241    54.6317 CH2           1 RES     
    2279 CH2         41.5994    39.1725    55.2854 CH2           1 RES     
    2280 CH2         41.7264    38.8686    56.7898 CH2           1 RES     
    2281 CH2         40.3329    38.9171    57.4435 CH2           1 RES     
    2282 CH2         40.4599    38.6132    58.9478 CH2           1 RES     
    2283 CH2         39.0664    38.6616    59.6016 CH2           1 RES     
    2284 CH3         39.1877    38.3715    61.0375 CH3           1 RES     
    2285 CH3         46.9575    32.0533    33.6361 CH3           1 RES     
    2286 CH3         48.9420    33.3162    33.6334 CH3           1 RES     
    2287 CH3         47.2902    33.8007    32.2844 CH3           1 RES     
    2288 NL          47.6131    33.3135    33.4714 NL            1 RES     
    2289 CH2         47.0198    34.2294    34.3361 CH2           1 RES     
    2290 CH2         47.4138    33.6353    35.7011 CH2           1 RES     
    2291 OA          46.8644    34.4845    36.7885 OA            1 RES     
    2292 P           47.9557    35.5990    37.1447 P             1 RES     
    2293 OM          49.2593    34.8237    37.6543 OM            1 RES     
    2294 OM          48.1761    36.4704    35.8210 OM            1 RES     
    2295 OA          47.3991    36.5365    38.3157 OA            1 RES     
    2296 CH2         48.4354    37.5560    38.6191 CH2           1 RES     
    2297 CH1         48.4020    37.9523    39.9178 CH1           1 RES     
    2298 OE          49.7262    37.3175    39.9830 OE            1 RES     
    2299 C           50.3370    36.7564    41.2329 C             1 RES     
    2300 O           51.1448    35.8292    41.2579 O             1 RES     
    2301 CH2         49.6122    37.3969    42.2522 CH2           1 RES     
    2302 CH2         50.1540    36.7103    43.5197 CH2           1 RES     
    2303 CH2         49.3377    37.1696    44.7421 CH2           1 RES     
    2304 CH2         49.8795    36.4830    46.0096 CH2           1 RES     
    2305 CH2         49.0631    36.9424    47.2320 CH2           1 RES     
    2306 CH2         49.6049    36.2558    48.4995 CH2           1 RES     
    2307 CH2         48.7885    36.7151    49.7218 CH2           1 RES     
    2308 CH2         49.3304    36.0285    50.9894 CH2           1 RES     
    2309 CH2         48.5140    36.4878    52.2117 CH2           1 RES     
    2310 CH2         49.0558    35.8013    53.4793 CH2           1 RES     
    2311 CH2         48.2394    36.2606    54.7016 CH2           1 RES     
    2312 CH2         48.7812    35.5740    55.9691 CH2           1 RES     
    2313 CH2         47.9649    36.0333    57.1915 CH2           1 RES     
    2314 CH2         48.5067    35.3468    58.4590 CH2           1 RES     
    2315 CH2         47.6903    35.8061    59.6814 CH2           1 RES     
    2316 CH2         48.2321    35.1195    60.9489 CH2           1 RES     
    2317 CH3         47.4528    35.5579    62.1157 CH3           1 RES     
    2318 CH2         47.3803    37.0880    40.6798 CH2           1 RES     
    2319 OE          48.0559    36.7265    41.9277 OE            1 RES     
    2320 C           46.9572    35.9081    42.5384 C             1 RES     
    2321 O           45.8664    35.7006    42.0091 O             1 RES     
    2322 CH2         47.4276    35.6721    43.8413 CH2           1 RES     
    2323 CH2         46.2332    34.9527    44.4950 CH2           1 RES     
    2324 CH2         46.5054    34.7672    45.9994 CH2           1 RES     
    2325 CH2         45.3110    34.0478    46.6531 CH2           1 RES     
    2326 CH2         45.5832    33.8624    48.1575 CH2           1 RES     
    2327 CH2         44.3888    33.1430    48.8112 CH2           1 RES     
    2328 CH2         44.6610    32.9575    50.3155 CH2           1 RES     
    2329 CH2         43.4666    32.2381    50.9693 CH2           1 RES     
    2330 CH2         43.7388    32.0527    52.4736 CH2           1 RES     
    2331 CH2         42.5444    31.3332    53.1273 CH2           1 RES     
    2332 CH2         42.8166    31.1478    54.6317 CH2           1 RES     
    2333 CH2         41.6222    30.4284    55.2854 CH2           1 RES     
    2334 CH2         41.8944    30.2429    56.7898 CH2           1 RES     
    2335 CH2         40.7000    29.5235    57.4435 CH2           1 RES     
    2336 CH2         40.9723    29.3381    58.9478 CH2           1 RES     
    2337 CH2         39.7778    28.6187    59.6016 CH2           1 RES     
    2338 CH3         40.0377    28.4416    61.0375 CH3           1 RES     
    2339 CH3         35.8150    32.0533    33.6361 CH3           1 RES     
    2340 CH3         37.8763    33.1865    33.6334 CH3           1 RES     
    2341 CH3         36.2590    33.7758    32.2844 CH3           1 RES     
    2342 NL          36.5500    33.2689    33.4714 NL            1 RES     
    2343 CH2         36.0165    34.2209    34.3361 CH2           1 RES     
    2344 CH2         36.3716    33.6028    35.7011 CH2           1 RES     
    2345 OA          35.8778    34.4855    36.7885 OA            1 RES     
    2346 P           37.0383    35.5278    37.1447 P             1 RES     
    2347 OM          38.2895    34.6706    37.6543 OM            1 RES     
    2348 OM          37.3140    36.3832    35.8210 OM            1 RES     
    2349 OA          36.5429    36.4990    38.3157 OA            1 RES     
    2350 CH2         37.6423    37.4500    38.6191 CH2           1 RES     
    2351 CH1         37.6343    37.8477    39.9178 CH1           1 RES     
    2352 OE          38.9152    37.1294    39.9830 OE            1 RES     
    2353 C           39.4888    36.5302    41.2329 C             1 RES     
    2354 O           40.2356    35.5532    41.2579 O             1 RES     
    2355 CH2         38.8065    37.2158    42.2522 CH2           1 RES     
    2356 CH2         39.3033    36.4960    43.5197 CH2           1 RES     
    2357 CH2         38.5180    37.0066    44.7421 CH2           1 RES     
    2358 CH2         39.0147    36.2868    46.0096 CH2           1 RES     
    2359 CH2         38.2294    36.7974    47.2320 CH2           1 RES     
    2360 CH2         38.7262    36.0776    48.4995 CH2           1 RES     
    2361 CH2         37.9409    36.5882    49.7218 CH2           1 RES     
    2362 CH2         38.4376    35.8684    50.9894 CH2           1 RES     
    2363 CH2         37.6523    36.3790    52.2117 CH2           1 RES     
    2364 CH2         38.1491    35.6592    53.4793 CH2           1 RES     
    2365 CH2         37.3638    36.1698    54.7016 CH2           1 RES     
    2366 CH2         37.8605    35.4500    55.9691 CH2           1 RES     
    2367 CH2         37.0752    35.9606    57.1915 CH2           1 RES     
    2368 CH2         37.5719    35.2408    58.4590 CH2           1 RES     
    2369 CH2         36.7867    35.7514    59.6814 CH2           1 RES     
    2370 CH2         37.2834    35.0316    60.9489 CH2           1 RES     
    2371 CH3         36.5338    35.5190    62.1157 CH3           1 RES     
    2372 CH2         36.5594    37.0505    40.6798 CH2           1 RES     
    2373 OE          37.2105    36.6465    41.9277 OE            1 RES     
    2374 C           36.0616    35.9003    42.5384 C             1 RES     
    2375 O           34.9598    35.7630    42.0091 O             1 RES     
    2376 CH2         36.5159    35.6346    43.8413 CH2           1 RES     
    2377 CH2         35.2779    34.9932    44.4950 CH2           1 RES     
    2378 CH2         35.5377    34.7906    45.9994 CH2           1 RES     
    2379 CH2         34.2996    34.1492    46.6531 CH2           1 RES     
    2380 CH2         34.5594    33.9467    48.1575 CH2           1 RES     
    2381 CH2         33.3213    33.3053    48.8112 CH2           1 RES     
    2382 CH2         33.5811    33.1028    50.3155 CH2           1 RES     
    2383 CH2         32.3431    32.4614    50.9693 CH2           1 RES     
    2384 CH2         32.6029    32.2588    52.4736 CH2           1 RES     
    2385 CH2         31.3648    31.6174    53.1273 CH2           1 RES     
    2386 CH2         31.6246    31.4149    54.6317 CH2           1 RES     
    2387 CH2         30.3865    30.7735    55.2854 CH2           1 RES     
    2388 CH2         30.6464    30.5710    56.7898 CH2           1 RES     
    2389 CH2         29.4083    29.9296    57.4435 CH2           1 RES     
    2390 CH2         29.6681    29.7271    58.9478 CH2           1 RES     
    2391 CH2         28.4300    29.0856    59.6016 CH2           1 RES     
    2392 CH3         28.6780    28.8923    61.0375 CH3           1 RES     
    2393 CH3         13.5300     4.1970    33.6361 CH3           1 RES     
    2394 CH3         15.3977     5.6269    33.6334 CH3           1 RES     
    2395 CH3         13.7102     5.9666    32.2844 CH3           1 RES     
    2396 NL          14.0741     5.5092    33.4714 NL            1 RES     
    2397 CH2         13.4036     6.3703    34.3361 CH2           1 RES     
    2398 CH2         13.8476     5.8125    35.7011 CH2           1 RES     
    2399 OA          13.2268     6.6110    36.7885 OA            1 RES     
    2400 P           14.2176     7.8158    37.1447 P             1 RES     
    2401 OM          15.5833     7.1562    37.6543 OM            1 RES     
    2402 OM          14.3617     8.7029    35.8210 OM            1 RES     
    2403 OA          13.5819     8.7016    38.3157 OA            1 RES     
    2404 CH2         14.5261     9.8069    38.6191 CH2           1 RES     
    2405 CH1         14.4584    10.1989    39.9178 CH1           1 RES     
    2406 OE          15.8327     9.6811    39.9830 OE            1 RES     
    2407 C           16.4897     9.1749    41.2329 C             1 RES     
    2408 O           17.3747     8.3211    41.2579 O             1 RES     
    2409 CH2         15.7122     9.7503    42.2522 CH2           1 RES     
    2410 CH2         16.3114     9.1131    43.5197 CH2           1 RES     
    2411 CH2         15.4584     9.5001    44.7421 CH2           1 RES     
    2412 CH2         16.0576     8.8630    46.0096 CH2           1 RES     
    2413 CH2         15.2045     9.2499    47.2320 CH2           1 RES     
    2414 CH2         15.8037     8.6128    48.4995 CH2           1 RES     
    2415 CH2         14.9506     8.9998    49.7218 CH2           1 RES     
    2416 CH2         15.5499     8.3627    50.9894 CH2           1 RES     
    2417 CH2         14.6968     8.7496    52.2117 CH2           1 RES     
    2418 CH2         15.2960     8.1125    53.4793 CH2           1 RES     
    2419 CH2         14.4429     8.4994    54.7016 CH2           1 RES     
    2420 CH2         15.0421     7.8623    55.9691 CH2           1 RES     
    2421 CH2         14.1891     8.2493    57.1915 CH2           1 RES     
    2422 CH2         14.7883     7.6122    58.4590 CH2           1 RES     
    2423 CH2         13.9352     7.9991    59.6814 CH2           1 RES     
    2424 CH2         14.5344     7.3620    60.9489 CH2           1 RES     
    2425 CH3         13.7201     7.7314    62.1157 CH3           1 RES     
    2426 CH2         13.5154     9.2493    40.6798 CH2           1 RES     
    2427 OE          14.2198     8.9477    41.9277 OE            1 RES     
    2428 C           13.1960     8.0373    42.5384 C             1 RES     
    2429 O           12.1273     7.7362    42.0091 O             1 RES     
    2430 CH2         13.6851     7.8429    43.8413 CH2           1 RES     
    2431 CH2         12.5574     7.0228    44.4950 CH2           1 RES     
    2432 CH2         12.8447     6.8616    45.9994 CH2           1 RES     
    2433 CH2         11.7170     6.0415    46.6531 CH2           1 RES     
    2434 CH2         12.0042     5.8804    48.1575 CH2           1 RES     
    2435 CH2         10.8765     5.0603    48.8112 CH2           1 RES     
    2436 CH2         11.1638     4.8991    50.3155 CH2           1 RES     
    2437 CH2         10.0361     4.0790    50.9693 CH2           1 RES     
    2438 CH2         10.3234     3.9178    52.4736 CH2           1 RES     
    2439 CH2          9.1957     3.0977    53.1273 CH2           1 RES     
    2440 CH2          9.4830     2.9365    54.6317 CH2           1 RES     
    2441 CH2          8.3553     2.1164    55.2854 CH2           1 RES     
    2442 CH2          8.6426     1.9552    56.7898 CH2           1 RES     
    2443 CH2          7.5149     1.1351    57.4435 CH2           1 RES     
    2444 CH2          7.8021     0.9740    58.9478 CH2           1 RES     
    2445 CH2          6.6744     0.1539    59.6016 CH2           1 RES     
    2446 CH3          6.9487     0.0000    61.0375 CH3           1 RES     
    2447 CH3         35.8150    43.1958    33.6361 CH3           1 RES     
    2448 CH3         38.1287    43.6200    33.6334 CH3           1 RES     
    2449 CH3         36.7802    44.6899    32.2844 CH3           1 RES     
    2450 NL          36.8963    44.1171    33.4714 NL            1 RES     
    2451 CH2         36.6908    45.1889    34.3361 CH2           1 RES     
    2452 CH2         36.8325    44.4902    35.7011 CH2           1 RES     
    2453 OA          36.6427    45.4837    36.7885 OA            1 RES     
    2454 P           38.0730    46.1061    37.1447 P             1 RES     
    2455 OM          38.9894    44.8976    37.6543 OM            1 RES     
    2456 OM          38.6048    46.8307    35.8210 OM            1 RES     
    2457 OA          37.9097    47.1841    38.3157 OA            1 RES     
    2458 CH2         39.2532    47.7392    38.6191 CH2           1 RES     
    2459 CH1         39.3712    48.1190    39.9178 CH1           1 RES     
    2460 OE          40.3597    47.0329    39.9830 OE            1 RES     
    2461 C           40.7147    46.2833    41.2329 C             1 RES     
    2462 O           41.1146    45.1205    41.2579 O             1 RES     
    2463 CH2         40.2839    47.1493    42.2522 CH2           1 RES     
    2464 CH2         40.5278    46.3094    43.5197 CH2           1 RES     
    2465 CH2         39.9440    47.0420    44.7421 CH2           1 RES     
    2466 CH2         40.1880    46.2020    46.0096 CH2           1 RES     
    2467 CH2         39.6042    46.9346    47.2320 CH2           1 RES     
    2468 CH2         39.8481    46.0947    48.4995 CH2           1 RES     
    2469 CH2         39.2643    46.8272    49.7218 CH2           1 RES     
    2470 CH2         39.5083    45.9873    50.9894 CH2           1 RES     
    2471 CH2         38.9245    46.7199    52.2117 CH2           1 RES     
    2472 CH2         39.1684    45.8800    53.4793 CH2           1 RES     
    2473 CH2         38.5846    46.6125    54.7016 CH2           1 RES     
    2474 CH2         38.8286    45.7726    55.9691 CH2           1 RES     
    2475 CH2         38.2448    46.5052    57.1915 CH2           1 RES     
    2476 CH2         38.4887    45.6652    58.4590 CH2           1 RES     
    2477 CH2         37.9049    46.3978    59.6814 CH2           1 RES     
    2478 CH2         38.1488    45.5579    60.9489 CH2           1 RES     
    2479 CH3         37.5916    46.2571    62.1157 CH3           1 RES     
    2480 CH2         38.0996    47.7022    40.6798 CH2           1 RES     
    2481 OE          38.5898    47.1132    41.9277 OE            1 RES     
    2482 C           37.2639    46.7680    42.5384 C             1 RES     
    2483 O           36.1752    46.9858    42.0091 O             1 RES     
    2484 CH2         37.6111    46.3724    43.8413 CH2           1 RES     
    2485 CH2         36.2338    46.1549    44.4950 CH2           1 RES     
    2486 CH2         36.4164    45.8807    45.9994 CH2           1 RES     
    2487 CH2         35.0391    45.6631    46.6531 CH2           1 RES     
    2488 CH2         35.2217    45.3889    48.1575 CH2           1 RES     
    2489 CH2         33.8444    45.1713    48.8112 CH2           1 RES     
    2490 CH2         34.0269    44.8971    50.3155 CH2           1 RES     
    2491 CH2         32.6496    44.6795    50.9693 CH2           1 RES     
    2492 CH2         32.8322    44.4053    52.4736 CH2           1 RES     
    2493 CH2         31.4549    44.1878    53.1273 CH2           1 RES     
    2494 CH2         31.6375    43.9136    54.6317 CH2           1 RES     
    2495 CH2         30.2602    43.6960    55.2854 CH2           1 RES     
    2496 CH2         30.4427    43.4218    56.7898 CH2           1 RES     
    2497 CH2         29.0655    43.2042    57.4435 CH2           1 RES     
    2498 CH2         29.2480    42.9300    58.9478 CH2           1 RES     
    2499 CH2         27.8707    42.7124    59.6016 CH2           1 RES     
    2500 CH3         28.0450    42.4507    61.0375 CH3           1 RES     
    2501 CH3         19.1012     4.1970    33.6361 CH3           1 RES     
    2502 CH3         21.4534     4.1809    33.6334 CH3           1 RES     
    2503 CH3         20.3289     5.4842    32.2844 CH3           1 RES     
    2504 NL          20.3357     4.8997    33.4714 NL            1 RES     
    2505 CH2         20.3343     5.9910    34.3361 CH2           1 RES     
    2506 CH2         20.3429     5.2782    35.7011 CH2           1 RES     
    2507 OA          20.3423     6.2896    36.7885 OA            1 RES     
    2508 P           21.8638     6.6335    37.1447 P             1 RES     
    2509 OM          22.5380     5.2749    37.6543 OM            1 RES     
    2510 OM          22.5217     7.2459    35.8210 OM            1 RES     
    2511 OA          21.9050     7.7231    38.3157 OA            1 RES     
    2512 CH2         23.3286     8.0170    38.6191 CH2           1 RES     
    2513 CH1         23.5156     8.3681    39.9178 CH1           1 RES     
    2514 OE          24.2835     7.1163    39.9830 OE            1 RES     
    2515 C           24.4920     6.3135    41.2329 C             1 RES     
    2516 O           24.6673     5.0963    41.2579 O             1 RES     
    2517 CH2         24.2308     7.2448    42.2522 CH2           1 RES     
    2518 CH2         24.3133     6.3740    43.5197 CH2           1 RES     
    2519 CH2         23.8768     7.2029    44.7421 CH2           1 RES     
    2520 CH2         23.9593     6.3322    46.0096 CH2           1 RES     
    2521 CH2         23.5229     7.1610    47.2320 CH2           1 RES     
    2522 CH2         23.6054     6.2903    48.4995 CH2           1 RES     
    2523 CH2         23.1689     7.1191    49.7218 CH2           1 RES     
    2524 CH2         23.2515     6.2484    50.9894 CH2           1 RES     
    2525 CH2         22.8150     7.0772    52.2117 CH2           1 RES     
    2526 CH2         22.8975     6.2065    53.4793 CH2           1 RES     
    2527 CH2         22.4611     7.0353    54.7016 CH2           1 RES     
    2528 CH2         22.5436     6.1646    55.9691 CH2           1 RES     
    2529 CH2         22.1071     6.9934    57.1915 CH2           1 RES     
    2530 CH2         22.1896     6.1227    58.4590 CH2           1 RES     
    2531 CH2         21.7532     6.9515    59.6814 CH2           1 RES     
    2532 CH2         21.8357     6.0808    60.9489 CH2           1 RES     
    2533 CH3         21.4191     6.8720    62.1157 CH3           1 RES     
    2534 CH2         22.1884     8.1965    40.6798 CH2           1 RES     
    2535 OE          22.5598     7.5262    41.9277 OE            1 RES     
    2536 C           21.1928     7.4351    42.5384 C             1 RES     
    2537 O           20.1640     7.8527    42.0091 O             1 RES     
    2538 CH2         21.4598     6.9816    43.8413 CH2           1 RES     
    2539 CH2         20.0662     7.0255    44.4950 CH2           1 RES     
    2540 CH2         20.1942     6.7219    45.9994 CH2           1 RES     
    2541 CH2         18.8005     6.7658    46.6531 CH2           1 RES     
    2542 CH2         18.9286     6.4623    48.1575 CH2           1 RES     
    2543 CH2         17.5349     6.5062    48.8112 CH2           1 RES     
    2544 CH2         17.6629     6.2027    50.3155 CH2           1 RES     
    2545 CH2         16.2693     6.2466    50.9693 CH2           1 RES     
    2546 CH2         16.3973     5.9431    52.4736 CH2           1 RES     
    2547 CH2         15.0036     5.9870    53.1273 CH2           1 RES     
    2548 CH2         15.1317     5.6835    54.6317 CH2           1 RES     
    2549 CH2         13.7380     5.7274    55.2854 CH2           1 RES     
    2550 CH2         13.8660     5.4239    56.7898 CH2           1 RES     
    2551 CH2         12.4724     5.4678    57.4435 CH2           1 RES     
    2552 CH2         12.6004     5.1643    58.9478 CH2           1 RES     
    2553 CH2         11.2067     5.2082    59.6016 CH2           1 RES     
    2554 CH3         11.3290     4.9185    61.0375 CH3           1 RES     
    2555 CH3          7.9587    20.9108    33.6361 CH3           1 RES     
    2556 CH3         10.2939    20.6281    33.6334 CH3           1 RES     
    2557 CH3          9.3244    22.0505    32.2844 CH3           1 RES     
    2558 NL           9.2649    21.4690    33.4714 NL            1 RES     
    2559 CH2          9.3873    22.5535    34.3361 CH2           1 RES     
    2560 CH2          9.3150    21.8443    35.7011 CH2           1 RES     
    2561 OA           9.4290    22.8492    36.7885 OA            1 RES     
    2562 P           10.9797    23.0184    37.1447 P             1 RES     
    2563 OM          11.4955    21.5921    37.6543 OM            1 RES     
    2564 OM          11.7028    23.5522    35.8210 OM            1 RES     
    2565 OA          11.1442    24.0962    38.3157 OA            1 RES     
    2566 CH2         12.5919    24.2269    38.6191 CH2           1 RES     
    2567 CH1         12.8175    24.5545    39.9178 CH1           1 RES     
    2568 OE          13.4385    23.2237    39.9830 OE            1 RES     
    2569 C           13.5546    22.4024    41.2329 C             1 RES     
    2570 O           13.5909    21.1732    41.2579 O             1 RES     
    2571 CH2         13.4007    23.3573    42.2522 CH2           1 RES     
    2572 CH2         13.3840    22.4829    43.5197 CH2           1 RES     
    2573 CH2         13.0443    23.3558    44.7421 CH2           1 RES     
    2574 CH2         13.0276    22.4814    46.0096 CH2           1 RES     
    2575 CH2         12.6879    23.3543    47.2320 CH2           1 RES     
    2576 CH2         12.6712    22.4799    48.4995 CH2           1 RES     
    2577 CH2         12.3315    23.3529    49.7218 CH2           1 RES     
    2578 CH2         12.3148    22.4784    50.9894 CH2           1 RES     
    2579 CH2         11.9751    23.3514    52.2117 CH2           1 RES     
    2580 CH2         11.9583    22.4769    53.4793 CH2           1 RES     
    2581 CH2         11.6187    23.3499    54.7016 CH2           1 RES     
    2582 CH2         11.6019    22.4754    55.9691 CH2           1 RES     
    2583 CH2         11.2623    23.3484    57.1915 CH2           1 RES     
    2584 CH2         11.2455    22.4739    58.4590 CH2           1 RES     
    2585 CH2         10.9058    23.3469    59.6814 CH2           1 RES     
    2586 CH2         10.8891    22.4724    60.9489 CH2           1 RES     
    2587 CH3         10.5649    23.3057    62.1157 CH3           1 RES     
    2588 CH2         11.4794    24.5345    40.6798 CH2           1 RES     
    2589 OE          11.7724    23.8264    41.9277 OE            1 RES     
    2590 C           10.4039    23.8909    42.5384 C             1 RES     
    2591 O            9.4291    24.4224    42.0091 O             1 RES     
    2592 CH2         10.6178    23.4100    43.8413 CH2           1 RES     
    2593 CH2          9.2381    23.6116    44.4950 CH2           1 RES     
    2594 CH2          9.3309    23.2955    45.9994 CH2           1 RES     
    2595 CH2          7.9512    23.4972    46.6531 CH2           1 RES     
    2596 CH2          8.0440    23.1811    48.1575 CH2           1 RES     
    2597 CH2          6.6643    23.3827    48.8112 CH2           1 RES     
    2598 CH2          6.7571    23.0666    50.3155 CH2           1 RES     
    2599 CH2          5.3774    23.2683    50.9693 CH2           1 RES     
    2600 CH2          5.4702    22.9522    52.4736 CH2           1 RES     
    2601 CH2          4.0905    23.1538    53.1273 CH2           1 RES     
    2602 CH2          4.1833    22.8378    54.6317 CH2           1 RES     
    2603 CH2          2.8036    23.0394    55.2854 CH2           1 RES     
    2604 CH2          2.8964    22.7233    56.7898 CH2           1 RES     
    2605 CH2          1.5167    22.9250    57.4435 CH2           1 RES     
    2606 CH2          1.6095    22.6089    58.9478 CH2           1 RES     
    2607 CH2          0.2298    22.8105    59.6016 CH2           1 RES     
    2608 CH3          0.3184    22.5088    61.0375 CH3           1 RES     
    2609 CH3         19.1012    20.9108    33.6361 CH3           1 RES     
    2610 CH3         20.9520    22.3626    33.6334 CH3           1 RES     
    2611 CH3         19.2606    22.6824    32.2844 CH3           1 RES     
    2612 NL          19.6298    22.2293    33.4714 NL            1 RES     
    2613 CH2         18.9493    23.0824    34.3361 CH2           1 RES     
    2614 CH2         19.3998    22.5300    35.7011 CH2           1 RES     
    2615 OA          18.7696    23.3211    36.7885 OA            1 RES     
    2616 P           19.7462    24.5374    37.1447 P             1 RES     
    2617 OM          21.1196    23.8940    37.6543 OM            1 RES     
    2618 OM          19.8798    25.4262    35.8210 OM            1 RES     
    2619 OA          19.1001    25.4157    38.3157 OA            1 RES     
    2620 CH2         20.0312    26.5321    38.6191 CH2           1 RES     
    2621 CH1         19.9590    26.9232    39.9178 CH1           1 RES     
    2622 OE          21.3392    26.4216    39.9830 OE            1 RES     
    2623 C           22.0021    25.9232    41.2329 C             1 RES     
    2624 O           22.8972    25.0799    41.2579 O             1 RES     
    2625 CH2         21.2180    26.4894    42.2522 CH2           1 RES     
    2626 CH2         21.8246    25.8593    43.5197 CH2           1 RES     
    2627 CH2         20.9671    26.2362    44.7421 CH2           1 RES     
    2628 CH2         21.5737    25.6062    46.0096 CH2           1 RES     
    2629 CH2         20.7162    25.9831    47.2320 CH2           1 RES     
    2630 CH2         21.3228    25.3531    48.4995 CH2           1 RES     
    2631 CH2         20.4653    25.7299    49.7218 CH2           1 RES     
    2632 CH2         21.0719    25.0999    50.9894 CH2           1 RES     
    2633 CH2         20.2144    25.4768    52.2117 CH2           1 RES     
    2634 CH2         20.8210    24.8468    53.4793 CH2           1 RES     
    2635 CH2         19.9635    25.2237    54.7016 CH2           1 RES     
    2636 CH2         20.5701    24.5937    55.9691 CH2           1 RES     
    2637 CH2         19.7126    24.9705    57.1915 CH2           1 RES     
    2638 CH2         20.3192    24.3405    58.4590 CH2           1 RES     
    2639 CH2         19.4617    24.7174    59.6814 CH2           1 RES     
    2640 CH2         20.0683    24.0874    60.9489 CH2           1 RES     
    2641 CH3         19.2497    24.4471    62.1157 CH3           1 RES     
    2642 CH2         19.0272    25.9626    40.6798 CH2           1 RES     
    2643 OE          19.7351    25.6693    41.9277 OE            1 RES     
    2644 C           18.7220    24.7469    42.5384 C             1 RES     
    2645 O           17.6570    24.4332    42.0091 O             1 RES     
    2646 CH2         19.2134    24.5583    43.8413 CH2           1 RES     
    2647 CH2         18.0954    23.7250    44.4950 CH2           1 RES     
    2648 CH2         18.3846    23.5672    45.9994 CH2           1 RES     
    2649 CH2         17.2666    22.7339    46.6531 CH2           1 RES     
    2650 CH2         17.5558    22.5761    48.1575 CH2           1 RES     
    2651 CH2         16.4378    21.7427    48.8112 CH2           1 RES     
    2652 CH2         16.7270    21.5849    50.3155 CH2           1 RES     
    2653 CH2         15.6090    20.7516    50.9693 CH2           1 RES     
    2654 CH2         15.8982    20.5938    52.4736 CH2           1 RES     
    2655 CH2         14.7802    19.7605    53.1273 CH2           1 RES     
    2656 CH2         15.0694    19.6027    54.6317 CH2           1 RES     
    2657 CH2         13.9514    18.7694    55.2854 CH2           1 RES     
    2658 CH2         14.2406    18.6116    56.7898 CH2           1 RES     
    2659 CH2         13.1226    17.7783    57.4435 CH2           1 RES     
    2660 CH2         13.4117    17.6205    58.9478 CH2           1 RES     
    2661 CH2         12.2938    16.7872    59.6016 CH2           1 RES     
    2662 CH3         12.5698    16.6366    61.0375 CH3           1 RES     
    2663 CH3         41.3863    32.0533    33.6361 CH3           1 RES     
    2664 CH3         43.7354    31.9329    33.6334 CH3           1 RES     
    2665 CH3         42.6698    33.2848    32.2844 CH3           1 RES     
    2666 NL          42.6507    32.7006    33.4714 NL            1 RES     
    2667 CH2         42.6977    33.7909    34.3361 CH2           1 RES     
    2668 CH2         42.6747    33.0784    35.7011 CH2           1 RES     
    2669 OA          42.7189    34.0888    36.7885 OA            1 RES     
    2670 P           44.2541    34.3649    37.1447 P             1 RES     
    2671 OM          44.8674    32.9778    37.6543 OM            1 RES     
    2672 OM          44.9386    34.9475    35.8210 OM            1 RES     
    2673 OA          44.3436    35.4516    38.3157 OA            1 RES     
    2674 CH2         45.7789    35.6821    38.6191 CH2           1 RES     
    2675 CH1         45.9813    36.0245    39.9178 CH1           1 RES     
    2676 OE          46.6929    34.7399    39.9830 OE            1 RES     
    2677 C           46.8656    33.9286    41.2329 C             1 RES     
    2678 O           46.9868    32.7049    41.2579 O             1 RES     
    2679 CH2         46.6459    34.8706    42.2522 CH2           1 RES     
    2680 CH2         46.6898    33.9970    43.5197 CH2           1 RES     
    2681 CH2         46.2905    34.8444    44.7421 CH2           1 RES     
    2682 CH2         46.3343    33.9709    46.0096 CH2           1 RES     
    2683 CH2         45.9350    34.8183    47.2320 CH2           1 RES     
    2684 CH2         45.9789    33.9447    48.4995 CH2           1 RES     
    2685 CH2         45.5796    34.7921    49.7218 CH2           1 RES     
    2686 CH2         45.6234    33.9186    50.9894 CH2           1 RES     
    2687 CH2         45.2241    34.7660    52.2117 CH2           1 RES     
    2688 CH2         45.2680    33.8924    53.4793 CH2           1 RES     
    2689 CH2         44.8687    34.7398    54.7016 CH2           1 RES     
    2690 CH2         44.9125    33.8663    55.9691 CH2           1 RES     
    2691 CH2         44.5132    34.7137    57.1915 CH2           1 RES     
    2692 CH2         44.5570    33.8401    58.4590 CH2           1 RES     
    2693 CH2         44.1578    34.6875    59.6814 CH2           1 RES     
    2694 CH2         44.2016    33.8140    60.9489 CH2           1 RES     
    2695 CH3         43.8205    34.6228    62.1157 CH3           1 RES     
    2696 CH2         44.6478    35.9119    40.6798 CH2           1 RES     
    2697 OE          44.9891    35.2259    41.9277 OE            1 RES     
    2698 C           43.6194    35.1955    42.5384 C             1 RES     
    2699 O           42.6101    35.6582    42.0091 O             1 RES     
    2700 CH2         43.8660    34.7305    43.8413 CH2           1 RES     
    2701 CH2         42.4757    34.8362    44.4950 CH2           1 RES     
    2702 CH2         42.5902    34.5273    45.9994 CH2           1 RES     
    2703 CH2         41.1998    34.6330    46.6531 CH2           1 RES     
    2704 CH2         41.3143    34.3241    48.1575 CH2           1 RES     
    2705 CH2         39.9239    34.4297    48.8112 CH2           1 RES     
    2706 CH2         40.0384    34.1208    50.3155 CH2           1 RES     
    2707 CH2         38.6480    34.2265    50.9693 CH2           1 RES     
    2708 CH2         38.7625    33.9176    52.4736 CH2           1 RES     
    2709 CH2         37.3721    34.0233    53.1273 CH2           1 RES     
    2710 CH2         37.4866    33.7144    54.6317 CH2           1 RES     
    2711 CH2         36.0962    33.8201    55.2854 CH2           1 RES     
    2712 CH2         36.2107    33.5112    56.7898 CH2           1 RES     
    2713 CH2         34.8203    33.6169    57.4435 CH2           1 RES     
    2714 CH2         34.9348    33.3080    58.9478 CH2           1 RES     
    2715 CH2         33.5444    33.4136    59.6016 CH2           1 RES     
    2716 CH3         33.6537    33.1188    61.0375 CH3           1 RES     
    2717 CH3         30.2438    15.3395    33.6361 CH3           1 RES     
    2718 CH3         32.4745    14.5932    33.6334 CH3           1 RES     
    2719 CH3         31.8106    16.1814    32.2844 CH3           1 RES     
    2720 NL          31.6355    15.6238    33.4714 NL            1 RES     
    2721 CH2         31.9733    16.6615    34.3361 CH2           1 RES     
    2722 CH2         31.7600    15.9813    35.7011 CH2           1 RES     
    2723 OA          32.0737    16.9429    36.7885 OA            1 RES     
    2724 P           33.6267    16.7969    37.1447 P             1 RES     
    2725 OM          33.8453    15.2961    37.6543 OM            1 RES     
    2726 OM          34.4423    17.1745    35.8210 OM            1 RES     
    2727 OA          34.0045    17.8197    38.3157 OA            1 RES     
    2728 CH2         35.4490    17.6567    38.6191 CH2           1 RES     
    2729 CH1         35.7358    17.9322    39.9178 CH1           1 RES     
    2730 OE          36.0766    16.5037    39.9830 OE            1 RES     
    2731 C           36.0253    15.6759    41.2329 C             1 RES     
    2732 O           35.8137    14.4645    41.2579 O             1 RES     
    2733 CH2         36.0664    16.6423    42.2522 CH2           1 RES     
    2734 CH2         35.8743    15.7890    43.5197 CH2           1 RES     
    2735 CH2         35.7170    16.7124    44.7421 CH2           1 RES     
    2736 CH2         35.5249    15.8592    46.0096 CH2           1 RES     
    2737 CH2         35.3676    16.7826    47.2320 CH2           1 RES     
    2738 CH2         35.1754    15.9294    48.4995 CH2           1 RES     
    2739 CH2         35.0181    16.8528    49.7218 CH2           1 RES     
    2740 CH2         34.8260    15.9995    50.9894 CH2           1 RES     
    2741 CH2         34.6687    16.9230    52.2117 CH2           1 RES     
    2742 CH2         34.4766    16.0697    53.4793 CH2           1 RES     
    2743 CH2         34.3193    16.9932    54.7016 CH2           1 RES     
    2744 CH2         34.1271    16.1399    55.9691 CH2           1 RES     
    2745 CH2         33.9698    17.0633    57.1915 CH2           1 RES     
    2746 CH2         33.7777    16.2101    58.4590 CH2           1 RES     
    2747 CH2         33.6204    17.1335    59.6814 CH2           1 RES     
    2748 CH2         33.4283    16.2803    60.9489 CH2           1 RES     
    2749 CH3         33.2781    17.1617    62.1157 CH3           1 RES     
    2750 CH2         34.4210    18.1816    40.6798 CH2           1 RES     
    2751 OE          34.5657    17.4291    41.9277 OE            1 RES     
    2752 C           33.2380    17.7673    42.5384 C             1 RES     
    2753 O           32.3900    18.4839    42.0091 O             1 RES     
    2754 CH2         33.3509    17.2532    43.8413 CH2           1 RES     
    2755 CH2         32.0399    17.7281    44.4950 CH2           1 RES     
    2756 CH2         32.0673    17.3998    45.9994 CH2           1 RES     
    2757 CH2         30.7563    17.8746    46.6531 CH2           1 RES     
    2758 CH2         30.7836    17.5464    48.1575 CH2           1 RES     
    2759 CH2         29.4726    18.0212    48.8112 CH2           1 RES     
    2760 CH2         29.5000    17.6929    50.3155 CH2           1 RES     
    2761 CH2         28.1890    18.1678    50.9693 CH2           1 RES     
    2762 CH2         28.2164    17.8395    52.4736 CH2           1 RES     
    2763 CH2         26.9053    18.3143    53.1273 CH2           1 RES     
    2764 CH2         26.9327    17.9861    54.6317 CH2           1 RES     
    2765 CH2         25.6217    18.4609    55.2854 CH2           1 RES     
    2766 CH2         25.6491    18.1326    56.7898 CH2           1 RES     
    2767 CH2         24.3381    18.6075    57.4435 CH2           1 RES     
    2768 CH2         24.3654    18.2792    58.9478 CH2           1 RES     
    2769 CH2         23.0544    18.7540    59.6016 CH2           1 RES     
    2770 CH3         23.0805    18.4407    61.0375 CH3           1 RES     
    2771 CH3         41.3863     4.1970    33.6361 CH3           1 RES     
    2772 CH3         43.6193     4.9365    33.6334 CH3           1 RES     
    2773 CH3         42.1360     5.8101    32.2844 CH3           1 RES     
    2774 NL          42.3300     5.2587    33.4714 NL            1 RES     
    2775 CH2         41.9785     6.2919    34.3361 CH2           1 RES     
    2776 CH2         42.2153     5.6195    35.7011 CH2           1 RES     
    2777 OA          41.8902     6.5772    36.7885 OA            1 RES     
    2778 P           43.2209     7.3912    37.1447 P             1 RES     
    2779 OM          44.2954     6.3207    37.6543 OM            1 RES     
    2780 OM          43.6475     8.1822    35.8210 OM            1 RES     
    2781 OA          42.9103     8.4363    38.3157 OA            1 RES     
    2782 CH2         44.1643     9.1715    38.6191 CH2           1 RES     
    2783 CH1         44.2288     9.5640    39.9178 CH1           1 RES     
    2784 OE          45.3577     8.6248    39.9830 OE            1 RES     
    2785 C           45.8128     7.9314    41.2329 C             1 RES     
    2786 O           46.3695     6.8349    41.2579 O             1 RES     
    2787 CH2         45.2666     8.7296    42.2522 CH2           1 RES     
    2788 CH2         45.6241     7.9314    43.5197 CH2           1 RES     
    2789 CH2         44.9448     8.5763    44.7421 CH2           1 RES     
    2790 CH2         45.3023     7.7781    46.0096 CH2           1 RES     
    2791 CH2         44.6230     8.4231    47.2320 CH2           1 RES     
    2792 CH2         44.9806     7.6249    48.4995 CH2           1 RES     
    2793 CH2         44.3012     8.2698    49.7218 CH2           1 RES     
    2794 CH2         44.6588     7.4716    50.9894 CH2           1 RES     
    2795 CH2         43.9794     8.1166    52.2117 CH2           1 RES     
    2796 CH2         44.3370     7.3184    53.4793 CH2           1 RES     
    2797 CH2         43.6576     7.9633    54.7016 CH2           1 RES     
    2798 CH2         44.0152     7.1651    55.9691 CH2           1 RES     
    2799 CH2         43.3359     7.8101    57.1915 CH2           1 RES     
    2800 CH2         43.6934     7.0119    58.4590 CH2           1 RES     
    2801 CH2         43.0141     7.6568    59.6814 CH2           1 RES     
    2802 CH2         43.3717     6.8586    60.9489 CH2           1 RES     
    2803 CH3         42.7232     7.4743    62.1157 CH3           1 RES     
    2804 CH2         43.0268     8.9756    40.6798 CH2           1 RES     
    2805 OE          43.5936     8.4600    41.9277 OE            1 RES     
    2806 C           42.3281     7.9350    42.5384 C             1 RES     
    2807 O           41.2198     8.0004    42.0091 O             1 RES     
    2808 CH2         42.7266     7.5911    43.8413 CH2           1 RES     
    2809 CH2         41.3926     7.1855    44.4950 CH2           1 RES     
    2810 CH2         41.6112     6.9391    45.9994 CH2           1 RES     
    2811 CH2         40.2772     6.5335    46.6531 CH2           1 RES     
    2812 CH2         40.4958     6.2871    48.1575 CH2           1 RES     
    2813 CH2         39.1618     5.8815    48.8112 CH2           1 RES     
    2814 CH2         39.3804     5.6351    50.3155 CH2           1 RES     
    2815 CH2         38.0464     5.2295    50.9693 CH2           1 RES     
    2816 CH2         38.2650     4.9831    52.4736 CH2           1 RES     
    2817 CH2         36.9310     4.5775    53.1273 CH2           1 RES     
    2818 CH2         37.1496     4.3311    54.6317 CH2           1 RES     
    2819 CH2         35.8156     3.9255    55.2854 CH2           1 RES     
    2820 CH2         36.0343     3.6791    56.7898 CH2           1 RES     
    2821 CH2         34.7002     3.2735    57.4435 CH2           1 RES     
    2822 CH2         34.9189     3.0271    58.9478 CH2           1 RES     
    2823 CH2         33.5848     2.6215    59.6016 CH2           1 RES     
    2824 CH3         33.7935     2.3863    61.0375 CH3           1 RES     
    2825 CH3         46.9575    15.3395    33.6361 CH3           1 RES     
    2826 CH3         49.2744    15.7458    33.6334 CH3           1 RES     
    2827 CH3         47.9343    16.8261    32.2844 CH3           1 RES     
    2828 NL          48.0459    16.2524    33.4714 NL            1 RES     
    2829 CH2         47.8486    17.3257    34.3361 CH2           1 RES     
    2830 CH2         47.9850    16.6261    35.7011 CH2           1 RES     
    2831 OA          47.8029    17.6209    36.7885 OA            1 RES     
    2832 P           49.2379    18.2323    37.1447 P             1 RES     
    2833 OM          50.1450    17.0168    37.6543 OM            1 RES     
    2834 OM          49.7753    18.9528    35.8210 OM            1 RES     
    2835 OA          49.0829    19.3115    38.3157 OA            1 RES     
    2836 CH2         50.4307    19.8562    38.6191 CH2           1 RES     
    2837 CH1         50.5516    20.2351    39.9178 CH1           1 RES     
    2838 OE          51.5317    19.1415    39.9830 OE            1 RES     
    2839 C           51.8809    18.3891    41.2329 C             1 RES     
    2840 O           52.2719    17.2232    41.2579 O             1 RES     
    2841 CH2         51.4568    19.2584    42.2522 CH2           1 RES     
    2842 CH2         51.6942    18.4166    43.5197 CH2           1 RES     
    2843 CH2         51.1161    19.1537    44.7421 CH2           1 RES     
    2844 CH2         51.3536    18.3119    46.0096 CH2           1 RES     
    2845 CH2         50.7754    19.0489    47.2320 CH2           1 RES     
    2846 CH2         51.0129    18.2072    48.4995 CH2           1 RES     
    2847 CH2         50.4348    18.9442    49.7218 CH2           1 RES     
    2848 CH2         50.6722    18.1024    50.9894 CH2           1 RES     
    2849 CH2         50.0941    18.8395    52.2117 CH2           1 RES     
    2850 CH2         50.3315    17.9977    53.4793 CH2           1 RES     
    2851 CH2         49.7534    18.7347    54.7016 CH2           1 RES     
    2852 CH2         49.9909    17.8930    55.9691 CH2           1 RES     
    2853 CH2         49.4127    18.6300    57.1915 CH2           1 RES     
    2854 CH2         49.6502    17.7882    58.4590 CH2           1 RES     
    2855 CH2         49.0721    18.5253    59.6814 CH2           1 RES     
    2856 CH2         49.3095    17.6835    60.9489 CH2           1 RES     
    2857 CH3         48.7577    18.3870    62.1157 CH3           1 RES     
    2858 CH2         49.2768    19.8281    40.6798 CH2           1 RES     
    2859 OE          49.7624    19.2354    41.9277 OE            1 RES     
    2860 C           48.4340    18.9004    42.5384 C             1 RES     
    2861 O           47.3470    19.1266    42.0091 O             1 RES     
    2862 CH2         48.7781    18.5022    43.8413 CH2           1 RES     
    2863 CH2         47.3992    18.2952    44.4950 CH2           1 RES     
    2864 CH2         47.5796    18.0196    45.9994 CH2           1 RES     
    2865 CH2         46.2007    17.8127    46.6531 CH2           1 RES     
    2866 CH2         46.3811    17.5371    48.1575 CH2           1 RES     
    2867 CH2         45.0022    17.3302    48.8112 CH2           1 RES     
    2868 CH2         45.1826    17.0545    50.3155 CH2           1 RES     
    2869 CH2         43.8037    16.8476    50.9693 CH2           1 RES     
    2870 CH2         43.9841    16.5720    52.4736 CH2           1 RES     
    2871 CH2         42.6052    16.3651    53.1273 CH2           1 RES     
    2872 CH2         42.7857    16.0895    54.6317 CH2           1 RES     
    2873 CH2         41.4067    15.8825    55.2854 CH2           1 RES     
    2874 CH2         41.5872    15.6069    56.7898 CH2           1 RES     
    2875 CH2         40.2082    15.4000    57.4435 CH2           1 RES     
    2876 CH2         40.3887    15.1244    58.9478 CH2           1 RES     
    2877 CH2         39.0098    14.9175    59.6016 CH2           1 RES     
    2878 CH3         39.1820    14.6544    61.0375 CH3           1 RES     
    2879 CH3         46.9575    43.1958    33.6361 CH3           1 RES     
    2880 CH3         49.2290    42.5846    33.6334 CH3           1 RES     
    2881 CH3         48.4712    44.1302    32.2844 CH3           1 RES     
    2882 NL          48.3298    43.5630    33.4714 NL            1 RES     
    2883 CH2         48.6048    44.6191    34.3361 CH2           1 RES     
    2884 CH2         48.4326    43.9274    35.7011 CH2           1 RES     
    2885 OA          48.6881    44.9060    36.7885 OA            1 RES     
    2886 P           50.2470    44.8534    37.1447 P             1 RES     
    2887 OM          50.5552    43.3683    37.6543 OM            1 RES     
    2888 OM          51.0386    45.2791    35.8210 OM            1 RES     
    2889 OA          50.5628    45.8969    38.3157 OA            1 RES     
    2890 CH2         52.0145    45.8208    38.6191 CH2           1 RES     
    2891 CH1         52.2843    46.1130    39.9178 CH1           1 RES     
    2892 OE          52.7101    44.7076    39.9830 OE            1 RES     
    2893 C           52.7085    43.8782    41.2329 C             1 RES     
    2894 O           52.5699    42.6563    41.2579 O             1 RES     
    2895 CH2         52.6917    44.8452    42.2522 CH2           1 RES     
    2896 CH2         52.5510    43.9820    43.5197 CH2           1 RES     
    2897 CH2         52.3387    44.8943    44.7421 CH2           1 RES     
    2898 CH2         52.1980    44.0311    46.0096 CH2           1 RES     
    2899 CH2         51.9856    44.9435    47.2320 CH2           1 RES     
    2900 CH2         51.8450    44.0802    48.4995 CH2           1 RES     
    2901 CH2         51.6326    44.9926    49.7218 CH2           1 RES     
    2902 CH2         51.4920    44.1293    50.9894 CH2           1 RES     
    2903 CH2         51.2796    45.0417    52.2117 CH2           1 RES     
    2904 CH2         51.1390    44.1784    53.4793 CH2           1 RES     
    2905 CH2         50.9266    45.0908    54.7016 CH2           1 RES     
    2906 CH2         50.7859    44.2275    55.9691 CH2           1 RES     
    2907 CH2         50.5736    45.1399    57.1915 CH2           1 RES     
    2908 CH2         50.4329    44.2766    58.4590 CH2           1 RES     
    2909 CH2         50.2206    45.1890    59.6814 CH2           1 RES     
    2910 CH2         50.0799    44.3258    60.9489 CH2           1 RES     
    2911 CH3         49.8772    45.1966    62.1157 CH3           1 RES     
    2912 CH2         50.9569    46.2831    40.6798 CH2           1 RES     
    2913 OE          51.1464    45.5407    41.9277 OE            1 RES     
    2914 C           49.8009    45.7987    42.5384 C             1 RES     
    2915 O           48.9114    46.4632    42.0091 O             1 RES     
    2916 CH2         49.9444    45.2923    43.8413 CH2           1 RES     
    2917 CH2         48.6073    45.6877    44.4950 CH2           1 RES     
    2918 CH2         48.6543    45.3617    45.9994 CH2           1 RES     
    2919 CH2         47.3172    45.7571    46.6531 CH2           1 RES     
    2920 CH2         47.3642    45.4310    48.1575 CH2           1 RES     
    2921 CH2         46.0270    45.8265    48.8112 CH2           1 RES     
    2922 CH2         46.0741    45.5004    50.3155 CH2           1 RES     
    2923 CH2         44.7369    45.8958    50.9693 CH2           1 RES     
    2924 CH2         44.7839    45.5698    52.4736 CH2           1 RES     
    2925 CH2         43.4468    45.9652    53.1273 CH2           1 RES     
    2926 CH2         43.4938    45.6391    54.6317 CH2           1 RES     
    2927 CH2         42.1567    46.0345    55.2854 CH2           1 RES     
    2928 CH2         42.2037    45.7085    56.7898 CH2           1 RES     
    2929 CH2         40.8666    46.1039    57.4435 CH2           1 RES     
    2930 CH2         40.9136    45.7779    58.9478 CH2           1 RES     
    2931 CH2         39.5765    46.1733    59.6016 CH2           1 RES     
    2932 CH3         39.6213    45.8620    61.0375 CH3           1 RES     
    2933 CH3         24.6725     9.7683    33.6361 CH3           1 RES     
    2934 CH3         26.9635     9.2350    33.6334 CH3           1 RES     
    2935 CH3         26.1533    10.7538    32.2844 CH3           1 RES     
    2936 NL          26.0314    10.1822    33.4714 NL            1 RES     
    2937 CH2         26.2701    11.2470    34.3361 CH2           1 RES     
    2938 CH2         26.1216    10.5498    35.7011 CH2           1 RES     
    2939 OA          26.3436    11.5366    36.7885 OA            1 RES     
    2940 P           27.9034    11.5373    37.1447 P             1 RES     
    2941 OM          28.2622    10.0637    37.6543 OM            1 RES     
    2942 OM          28.6799    11.9899    35.8210 OM            1 RES     
    2943 OA          28.1833    12.5911    38.3157 OA            1 RES     
    2944 CH2         29.6368    12.5646    38.6191 CH2           1 RES     
    2945 CH1         29.8964    12.8659    39.9178 CH1           1 RES     
    2946 OE          30.3700    11.4758    39.9830 OE            1 RES     
    2947 C           30.3968    10.6469    41.2329 C             1 RES     
    2948 O           30.3001     9.4209    41.2579 O             1 RES     
    2949 CH2         30.3469    11.6128    42.2522 CH2           1 RES     
    2950 CH2         30.2358    10.7452    43.5197 CH2           1 RES     
    2951 CH2         29.9924    11.6498    44.7421 CH2           1 RES     
    2952 CH2         29.8813    10.7822    46.0096 CH2           1 RES     
    2953 CH2         29.6379    11.6868    47.2320 CH2           1 RES     
    2954 CH2         29.5268    10.8192    48.4995 CH2           1 RES     
    2955 CH2         29.2834    11.7238    49.7218 CH2           1 RES     
    2956 CH2         29.1724    10.8563    50.9894 CH2           1 RES     
    2957 CH2         28.9289    11.7608    52.2117 CH2           1 RES     
    2958 CH2         28.8179    10.8933    53.4793 CH2           1 RES     
    2959 CH2         28.5745    11.7978    54.7016 CH2           1 RES     
    2960 CH2         28.4634    10.9303    55.9691 CH2           1 RES     
    2961 CH2         28.2200    11.8348    57.1915 CH2           1 RES     
    2962 CH2         28.1089    10.9673    58.4590 CH2           1 RES     
    2963 CH2         27.8655    11.8718    59.6814 CH2           1 RES     
    2964 CH2         27.7544    11.0043    60.9489 CH2           1 RES     
    2965 CH3         27.5221    11.8677    62.1157 CH3           1 RES     
    2966 CH2         28.5640    12.9905    40.6798 CH2           1 RES     
    2967 OE          28.7788    12.2550    41.9277 OE            1 RES     
    2968 C           27.4252    12.4668    42.5384 C             1 RES     
    2969 O           26.5135    13.1005    42.0091 O             1 RES     
    2970 CH2         27.5859    11.9657    43.8413 CH2           1 RES     
    2971 CH2         26.2361    12.3151    44.4950 CH2           1 RES     
    2972 CH2         26.2942    11.9909    45.9994 CH2           1 RES     
    2973 CH2         24.9443    12.3403    46.6531 CH2           1 RES     
    2974 CH2         25.0025    12.0161    48.1575 CH2           1 RES     
    2975 CH2         23.6526    12.3655    48.8112 CH2           1 RES     
    2976 CH2         23.7107    12.0413    50.3155 CH2           1 RES     
    2977 CH2         22.3609    12.3907    50.9693 CH2           1 RES     
    2978 CH2         22.4190    12.0665    52.4736 CH2           1 RES     
    2979 CH2         21.0691    12.4160    53.1273 CH2           1 RES     
    2980 CH2         21.1273    12.0917    54.6317 CH2           1 RES     
    2981 CH2         19.7774    12.4412    55.2854 CH2           1 RES     
    2982 CH2         19.8355    12.1169    56.7898 CH2           1 RES     
    2983 CH2         18.4857    12.4664    57.4435 CH2           1 RES     
    2984 CH2         18.5438    12.1421    58.9478 CH2           1 RES     
    2985 CH2         17.1939    12.4916    59.6016 CH2           1 RES     
    2986 CH3         17.2494    12.1821    61.0375 CH3           1 RES     
    2987 CH3         19.1012    37.6246    33.6361 CH3           1 RES     
    2988 CH3         21.4511    37.7293    33.6334 CH3           1 RES     
    2989 CH3         20.2611    38.9731    32.2844 CH3           1 RES     
    2990 NL          20.2980    38.3898    33.4714 NL            1 RES     
    2991 CH2         20.2405    39.4796    34.3361 CH2           1 RES     
    2992 CH2         20.2857    38.7682    35.7011 CH2           1 RES     
    2993 OA          20.2331    39.7782    36.7885 OA            1 RES     
    2994 P           21.7349    40.1998    37.1447 P             1 RES     
    2995 OM          22.4780    38.8777    37.6543 OM            1 RES     
    2996 OM          22.3605    40.8452    35.8210 OM            1 RES     
    2997 OA          21.7201    41.2900    38.3157 OA            1 RES     
    2998 CH2         23.1268    41.6568    38.6191 CH2           1 RES     
    2999 CH1         23.2955    42.0169    39.9178 CH1           1 RES     
    3000 OE          24.1267    40.8062    39.9830 OE            1 RES     
    3001 C           24.3761    40.0152    41.2329 C             1 RES     
    3002 O           24.6138    38.8087    41.2579 O             1 RES     
    3003 CH2         24.0674    40.9318    42.2522 CH2           1 RES     
    3004 CH2         24.1945    40.0665    43.5197 CH2           1 RES     
    3005 CH2         23.7161    40.8718    44.7421 CH2           1 RES     
    3006 CH2         23.8432    40.0065    46.0096 CH2           1 RES     
    3007 CH2         23.3648    40.8118    47.2320 CH2           1 RES     
    3008 CH2         23.4919    39.9465    48.4995 CH2           1 RES     
    3009 CH2         23.0134    40.7518    49.7218 CH2           1 RES     
    3010 CH2         23.1406    39.8865    50.9894 CH2           1 RES     
    3011 CH2         22.6621    40.6918    52.2117 CH2           1 RES     
    3012 CH2         22.7893    39.8264    53.4793 CH2           1 RES     
    3013 CH2         22.3108    40.6317    54.7016 CH2           1 RES     
    3014 CH2         22.4379    39.7664    55.9691 CH2           1 RES     
    3015 CH2         21.9595    40.5717    57.1915 CH2           1 RES     
    3016 CH2         22.0866    39.7064    58.4590 CH2           1 RES     
    3017 CH2         21.6082    40.5117    59.6814 CH2           1 RES     
    3018 CH2         21.7353    39.6464    60.9489 CH2           1 RES     
    3019 CH3         21.2786    40.4151    62.1157 CH3           1 RES     
    3020 CH2         21.9788    41.7774    40.6798 CH2           1 RES     
    3021 OE          22.3842    41.1271    41.9277 OE            1 RES     
    3022 C           21.0236    40.9658    42.5384 C             1 RES     
    3023 O           19.9748    41.3300    42.0091 O             1 RES     
    3024 CH2         21.3137    40.5266    43.8413 CH2           1 RES     
    3025 CH2         19.9196    40.4989    44.4950 CH2           1 RES     
    3026 CH2         20.0630    40.2023    45.9994 CH2           1 RES     
    3027 CH2         18.6689    40.1746    46.6531 CH2           1 RES     
    3028 CH2         18.8124    39.8780    48.1575 CH2           1 RES     
    3029 CH2         17.4183    39.8503    48.8112 CH2           1 RES     
    3030 CH2         17.5618    39.5537    50.3155 CH2           1 RES     
    3031 CH2         16.1677    39.5260    50.9693 CH2           1 RES     
    3032 CH2         16.3112    39.2295    52.4736 CH2           1 RES     
    3033 CH2         14.9171    39.2017    53.1273 CH2           1 RES     
    3034 CH2         15.0605    38.9052    54.6317 CH2           1 RES     
    3035 CH2         13.6665    38.8774    55.2854 CH2           1 RES     
    3036 CH2         13.8099    38.5809    56.7898 CH2           1 RES     
    3037 CH2         12.4158    38.5531    57.4435 CH2           1 RES     
    3038 CH2         12.5593    38.2566    58.9478 CH2           1 RES     
    3039 CH2         11.1652    38.2288    59.6016 CH2           1 RES     
    3040 CH3         11.3022    37.9458    61.0375 CH3           1 RES     
    3041 CH3         35.8150    37.6246    33.6361 CH3           1 RES     
    3042 CH3         38.1613    37.7916    33.6334 CH3           1 RES     
    3043 CH3         36.9388    39.0034    32.2844 CH3           1 RES     
    3044 NL          36.9911    38.4213    33.4714 NL            1 RES     
    3045 CH2         36.9047    39.5092    34.3361 CH2           1 RES     
    3046 CH2         36.9688    38.7992    35.7011 CH2           1 RES     
    3047 OA          36.8894    39.8075    36.7885 OA            1 RES     
    3048 P           38.3795    40.2688    37.1447 P             1 RES     
    3049 OM          39.1574    38.9668    37.6543 OM            1 RES     
    3050 OM          38.9877    40.9305    35.8210 OM            1 RES     
    3051 OA          38.3358    41.3582    38.3157 OA            1 RES     
    3052 CH2         39.7322    41.7621    38.6191 CH2           1 RES     
    3053 CH1         39.8913    42.1266    39.9178 CH1           1 RES     
    3054 OE          40.7543    40.9384    39.9830 OE            1 RES     
    3055 C           41.0246    40.1543    41.2329 C             1 RES     
    3056 O           41.2942    38.9544    41.2579 O             1 RES     
    3057 CH2         40.6917    41.0624    42.2522 CH2           1 RES     
    3058 CH2         40.8418    40.2007    43.5197 CH2           1 RES     
    3059 CH2         40.3421    40.9931    44.7421 CH2           1 RES     
    3060 CH2         40.4922    40.1314    46.0096 CH2           1 RES     
    3061 CH2         39.9925    40.9238    47.2320 CH2           1 RES     
    3062 CH2         40.1426    40.0621    48.4995 CH2           1 RES     
    3063 CH2         39.6429    40.8544    49.7218 CH2           1 RES     
    3064 CH2         39.7930    39.9928    50.9894 CH2           1 RES     
    3065 CH2         39.2933    40.7851    52.2117 CH2           1 RES     
    3066 CH2         39.4434    39.9235    53.4793 CH2           1 RES     
    3067 CH2         38.9437    40.7158    54.7016 CH2           1 RES     
    3068 CH2         39.0938    39.8542    55.9691 CH2           1 RES     
    3069 CH2         38.5941    40.6465    57.1915 CH2           1 RES     
    3070 CH2         38.7441    39.7848    58.4590 CH2           1 RES     
    3071 CH2         38.2445    40.5772    59.6814 CH2           1 RES     
    3072 CH2         38.3945    39.7155    60.9489 CH2           1 RES     
    3073 CH3         37.9176    40.4718    62.1157 CH3           1 RES     
    3074 CH2         38.5815    41.8522    40.6798 CH2           1 RES     
    3075 OE          39.0039    41.2129    41.9277 OE            1 RES     
    3076 C           37.6481    41.0157    42.5384 C             1 RES     
    3077 O           36.5900    41.3519    42.0091 O             1 RES     
    3078 CH2         37.9497    40.5843    43.8413 CH2           1 RES     
    3079 CH2         36.5568    40.5196    44.4950 CH2           1 RES     
    3080 CH2         36.7081    40.2269    45.9994 CH2           1 RES     
    3081 CH2         35.3153    40.1622    46.6531 CH2           1 RES     
    3082 CH2         35.4665    39.8696    48.1575 CH2           1 RES     
    3083 CH2         34.0737    39.8049    48.8112 CH2           1 RES     
    3084 CH2         34.2250    39.5122    50.3155 CH2           1 RES     
    3085 CH2         32.8321    39.4475    50.9693 CH2           1 RES     
    3086 CH2         32.9834    39.1549    52.4736 CH2           1 RES     
    3087 CH2         31.5905    39.0902    53.1273 CH2           1 RES     
    3088 CH2         31.7418    38.7976    54.6317 CH2           1 RES     
    3089 CH2         30.3489    38.7328    55.2854 CH2           1 RES     
    3090 CH2         30.5002    38.4402    56.7898 CH2           1 RES     
    3091 CH2         29.1073    38.3755    57.4435 CH2           1 RES     
    3092 CH2         29.2586    38.0829    58.9478 CH2           1 RES     
    3093 CH2         27.8658    38.0181    59.6016 CH2           1 RES     
    3094 CH3         28.0102    37.7388    61.0375 CH3           1 RES     
    3095 CH3         46.9575     9.7683    33.6361 CH3           1 RES     
    3096 CH3         48.9639    10.9961    33.6334 CH3           1 RES     
    3097 CH3         47.3208    11.5095    32.2844 CH3           1 RES     
    3098 NL          47.6352    11.0167    33.4714 NL            1 RES     
    3099 CH2         47.0579    11.9429    34.3361 CH2           1 RES     
    3100 CH2         47.4415    11.3420    35.7011 CH2           1 RES     
    3101 OA          46.9071    12.2007    36.7885 OA            1 RES     
    3102 P           48.0178    13.2959    37.1447 P             1 RES     
    3103 OM          49.3075    12.4978    37.6543 OM            1 RES     
    3104 OM          48.2534    14.1633    35.8210 OM            1 RES     
    3105 OA          47.4777    14.2430    38.3157 OA            1 RES     
    3106 CH2         48.5317    15.2442    38.6191 CH2           1 RES     
    3107 CH1         48.5053    15.6410    39.9178 CH1           1 RES     
    3108 OE          49.8182    14.9831    39.9830 OE            1 RES     
    3109 C           50.4190    14.4113    41.2329 C             1 RES     
    3110 O           51.2104    13.4701    41.2579 O             1 RES     
    3111 CH2         49.7056    15.0644    42.2522 CH2           1 RES     
    3112 CH2         50.2353    14.3684    43.5197 CH2           1 RES     
    3113 CH2         49.4271    14.8420    44.7421 CH2           1 RES     
    3114 CH2         49.9568    14.1460    46.0096 CH2           1 RES     
    3115 CH2         49.1486    14.6196    47.2320 CH2           1 RES     
    3116 CH2         49.6783    13.9236    48.4995 CH2           1 RES     
    3117 CH2         48.8701    14.3972    49.7218 CH2           1 RES     
    3118 CH2         49.3998    13.7012    50.9894 CH2           1 RES     
    3119 CH2         48.5916    14.1748    52.2117 CH2           1 RES     
    3120 CH2         49.1212    13.4788    53.4793 CH2           1 RES     
    3121 CH2         48.3131    13.9524    54.7016 CH2           1 RES     
    3122 CH2         48.8427    13.2564    55.9691 CH2           1 RES     
    3123 CH2         48.0345    13.7300    57.1915 CH2           1 RES     
    3124 CH2         48.5642    13.0340    58.4590 CH2           1 RES     
    3125 CH2         47.7560    13.5076    59.6814 CH2           1 RES     
    3126 CH2         48.2857    12.8116    60.9489 CH2           1 RES     
    3127 CH3         47.5143    13.2637    62.1157 CH3           1 RES     
    3128 CH2         47.4686    14.7947    40.6798 CH2           1 RES     
    3129 OE          48.1378    14.4215    41.9277 OE            1 RES     
    3130 C           47.0248    13.6225    42.5384 C             1 RES     
    3131 O           45.9306    13.4342    42.0091 O             1 RES     
    3132 CH2         47.4910    13.3783    43.8413 CH2           1 RES     
    3133 CH2         46.2842    12.6799    44.4950 CH2           1 RES     
    3134 CH2         46.5531    12.4897    45.9994 CH2           1 RES     
    3135 CH2         45.3462    11.7914    46.6531 CH2           1 RES     
    3136 CH2         45.6152    11.6012    48.1575 CH2           1 RES     
    3137 CH2         44.4083    10.9028    48.8112 CH2           1 RES     
    3138 CH2         44.6772    10.7126    50.3155 CH2           1 RES     
    3139 CH2         43.4704    10.0143    50.9693 CH2           1 RES     
    3140 CH2         43.7393     9.8241    52.4736 CH2           1 RES     
    3141 CH2         42.5324     9.1258    53.1273 CH2           1 RES     
    3142 CH2         42.8014     8.9356    54.6317 CH2           1 RES     
    3143 CH2         41.5945     8.2372    55.2854 CH2           1 RES     
    3144 CH2         41.8635     8.0470    56.7898 CH2           1 RES     
    3145 CH2         40.6566     7.3487    57.4435 CH2           1 RES     
    3146 CH2         40.9255     7.1585    58.9478 CH2           1 RES     
    3147 CH2         39.7186     6.4601    59.6016 CH2           1 RES     
    3148 CH3         39.9754     6.2786    61.0375 CH3           1 RES     
    3149 CH3         41.3863    37.6246    33.6361 CH3           1 RES     
    3150 CH3         43.7218    37.3449    33.6334 CH3           1 RES     
    3151 CH3         42.7505    38.7660    32.2844 CH3           1 RES     
    3152 NL          42.6918    38.1845    33.4714 NL            1 RES     
    3153 CH2         42.8127    39.2691    34.3361 CH2           1 RES     
    3154 CH2         42.7413    38.5598    35.7011 CH2           1 RES     
    3155 OA          42.8541    39.5649    36.7885 OA            1 RES     
    3156 P           44.4045    39.7361    37.1447 P             1 RES     
    3157 OM          44.9222    38.3105    37.6543 OM            1 RES     
    3158 OM          45.1269    40.2709    35.8210 OM            1 RES     
    3159 OA          44.5676    40.8142    38.3157 OA            1 RES     
    3160 CH2         46.0152    40.9467    38.6191 CH2           1 RES     
    3161 CH1         46.2403    41.2746    39.9178 CH1           1 RES     
    3162 OE          46.8631    39.9446    39.9830 OE            1 RES     
    3163 C           46.9802    39.1235    41.2329 C             1 RES     
    3164 O           47.0181    37.8944    41.2579 O             1 RES     
    3165 CH2         46.8251    40.0782    42.2522 CH2           1 RES     
    3166 CH2         46.8095    39.2037    43.5197 CH2           1 RES     
    3167 CH2         46.4687    40.0763    44.7421 CH2           1 RES     
    3168 CH2         46.4531    39.2018    46.0096 CH2           1 RES     
    3169 CH2         46.1123    40.0743    47.2320 CH2           1 RES     
    3170 CH2         46.0967    39.1998    48.4995 CH2           1 RES     
    3171 CH2         45.7559    40.0724    49.7218 CH2           1 RES     
    3172 CH2         45.7403    39.1979    50.9894 CH2           1 RES     
    3173 CH2         45.3994    40.0704    52.2117 CH2           1 RES     
    3174 CH2         45.3839    39.1959    53.4793 CH2           1 RES     
    3175 CH2         45.0430    40.0684    54.7016 CH2           1 RES     
    3176 CH2         45.0275    39.1939    55.9691 CH2           1 RES     
    3177 CH2         44.6866    40.0665    57.1915 CH2           1 RES     
    3178 CH2         44.6711    39.1920    58.4590 CH2           1 RES     
    3179 CH2         44.3302    40.0645    59.6814 CH2           1 RES     
    3180 CH2         44.3146    39.1900    60.9489 CH2           1 RES     
    3181 CH3         43.9893    40.0229    62.1157 CH3           1 RES     
    3182 CH2         44.9022    41.2528    40.6798 CH2           1 RES     
    3183 OE          45.1962    40.5452    41.9277 OE            1 RES     
    3184 C           43.8276    40.6078    42.5384 C             1 RES     
    3185 O           42.8521    41.1381    42.0091 O             1 RES     
    3186 CH2         44.0421    40.1272    43.8413 CH2           1 RES     
    3187 CH2         42.6621    40.3271    44.4950 CH2           1 RES     
    3188 CH2         42.7553    40.0111    45.9994 CH2           1 RES     
    3189 CH2         41.3754    40.2109    46.6531 CH2           1 RES     
    3190 CH2         41.4686    39.8950    48.1575 CH2           1 RES     
    3191 CH2         40.0886    40.0948    48.8112 CH2           1 RES     
    3192 CH2         40.1818    39.7789    50.3155 CH2           1 RES     
    3193 CH2         38.8019    39.9787    50.9693 CH2           1 RES     
    3194 CH2         38.8951    39.6627    52.4736 CH2           1 RES     
    3195 CH2         37.5151    39.8626    53.1273 CH2           1 RES     
    3196 CH2         37.6083    39.5466    54.6317 CH2           1 RES     
    3197 CH2         36.2284    39.7464    55.2854 CH2           1 RES     
    3198 CH2         36.3216    39.4305    56.7898 CH2           1 RES     
    3199 CH2         34.9416    39.6303    57.4435 CH2           1 RES     
    3200 CH2         35.0348    39.3144    58.9478 CH2           1 RES     
    3201 CH2         33.6549    39.5142    59.6016 CH2           1 RES     
    3202 CH3         33.7438    39.2126    61.0375 CH3           1 RES     
    3203 CH3         30.2438     4.1970    33.6361 CH3           1 RES     
    3204 CH3         32.5953     4.2548    33.6334 CH3           1 RES     
    3205 CH3         31.4304     5.5221    32.2844 CH3           1 RES     
    3206 NL          31.4556     4.9382    33.4714 NL            1 RES     
    3207 CH2         31.4199     6.0289    34.3361 CH2           1 RES     
    3208 CH2         31.4509     5.3167    35.7011 CH2           1 RES     
    3209 OA          31.4185     6.3276    36.7885 OA            1 RES     
    3210 P           32.9284     6.7191    37.1447 P             1 RES     
    3211 OM          33.6449     5.3824    37.6543 OM            1 RES     
    3212 OM          33.5667     7.3518    35.8210 OM            1 RES     
    3213 OA          32.9354     7.8094    38.3157 OA            1 RES     
    3214 CH2         34.3491     8.1479    38.6191 CH2           1 RES     
    3215 CH1         34.5249     8.5047    39.9178 CH1           1 RES     
    3216 OE          35.3317     7.2776    39.9830 OE            1 RES     
    3217 C           35.5653     6.4818    41.2329 C             1 RES     
    3218 O           35.7789     5.2707    41.2579 O             1 RES     
    3219 CH2         35.2750     7.4044    42.2522 CH2           1 RES     
    3220 CH2         35.3848     6.5367    43.5197 CH2           1 RES     
    3221 CH2         34.9226     7.3514    44.7421 CH2           1 RES     
    3222 CH2         35.0324     6.4837    46.0096 CH2           1 RES     
    3223 CH2         34.5701     7.2984    47.2320 CH2           1 RES     
    3224 CH2         34.6799     6.4307    48.4995 CH2           1 RES     
    3225 CH2         34.2177     7.2454    49.7218 CH2           1 RES     
    3226 CH2         34.3275     6.3777    50.9894 CH2           1 RES     
    3227 CH2         33.8652     7.1924    52.2117 CH2           1 RES     
    3228 CH2         33.9750     6.3247    53.4793 CH2           1 RES     
    3229 CH2         33.5128     7.1394    54.7016 CH2           1 RES     
    3230 CH2         33.6226     6.2717    55.9691 CH2           1 RES     
    3231 CH2         33.1603     7.0865    57.1915 CH2           1 RES     
    3232 CH2         33.2701     6.2188    58.4590 CH2           1 RES     
    3233 CH2         32.8079     7.0335    59.6814 CH2           1 RES     
    3234 CH2         32.9177     6.1658    60.9489 CH2           1 RES     
    3235 CH3         32.4764     6.9435    62.1157 CH3           1 RES     
    3236 CH2         33.2038     8.2915    40.6798 CH2           1 RES     
    3237 OE          33.5960     7.6332    41.9277 OE            1 RES     
    3238 C           32.2325     7.4992    42.5384 C             1 RES     
    3239 O           31.1912     7.8842    42.0091 O             1 RES     
    3240 CH2         32.5137     7.0543    43.8413 CH2           1 RES     
    3241 CH2         31.1194     7.0544    44.4950 CH2           1 RES     
    3242 CH2         31.2569     6.7550    45.9994 CH2           1 RES     
    3243 CH2         29.8625     6.7551    46.6531 CH2           1 RES     
    3244 CH2         30.0000     6.4558    48.1575 CH2           1 RES     
    3245 CH2         28.6057     6.4559    48.8112 CH2           1 RES     
    3246 CH2         28.7432     6.1566    50.3155 CH2           1 RES     
    3247 CH2         27.3488     6.1567    50.9693 CH2           1 RES     
    3248 CH2         27.4863     5.8573    52.4736 CH2           1 RES     
    3249 CH2         26.0920     5.8574    53.1273 CH2           1 RES     
    3250 CH2         26.2295     5.5581    54.6317 CH2           1 RES     
    3251 CH2         24.8351     5.5582    55.2854 CH2           1 RES     
    3252 CH2         24.9726     5.2589    56.7898 CH2           1 RES     
    3253 CH2         23.5783     5.2590    57.4435 CH2           1 RES     
    3254 CH2         23.7158     4.9596    58.9478 CH2           1 RES     
    3255 CH2         22.3214     4.9597    59.6016 CH2           1 RES     
    3256 CH3         22.4527     4.6740    61.0375 CH3           1 RES     
    3257 CH3         13.5300    15.3395    33.6361 CH3           1 RES     
    3258 CH3         15.5117    16.6067    33.6334 CH3           1 RES     
    3259 CH3         13.8589    17.0876    32.2844 CH3           1 RES     
    3260 NL          14.1829    16.6011    33.4714 NL            1 RES     
    3261 CH2         13.5875    17.5157    34.3361 CH2           1 RES     
    3262 CH2         13.9828    16.9225    35.7011 CH2           1 RES     
    3263 OA          13.4316    17.7705    36.7885 OA            1 RES     
    3264 P           14.5206    18.8873    37.1447 P             1 RES     
    3265 OM          15.8258    18.1148    37.6543 OM            1 RES     
    3266 OM          14.7390    19.7592    35.8210 OM            1 RES     
    3267 OA          13.9619    19.8237    38.3157 OA            1 RES     
    3268 CH2         14.9960    20.8454    38.6191 CH2           1 RES     
    3269 CH1         14.9617    21.2416    39.9178 CH1           1 RES     
    3270 OE          16.2874    20.6097    39.9830 OE            1 RES     
    3271 C           16.8993    20.0498    41.2329 C             1 RES     
    3272 O           17.7091    19.1244    41.2579 O             1 RES     
    3273 CH2         16.1732    20.6888    42.2522 CH2           1 RES     
    3274 CH2         16.7165    20.0033    43.5197 CH2           1 RES     
    3275 CH2         15.8991    20.4609    44.7421 CH2           1 RES     
    3276 CH2         16.4424    19.7755    46.0096 CH2           1 RES     
    3277 CH2         15.6250    20.2331    47.2320 CH2           1 RES     
    3278 CH2         16.1683    19.5477    48.4995 CH2           1 RES     
    3279 CH2         15.3510    20.0052    49.7218 CH2           1 RES     
    3280 CH2         15.8943    19.3198    50.9894 CH2           1 RES     
    3281 CH2         15.0769    19.7774    52.2117 CH2           1 RES     
    3282 CH2         15.6202    19.0920    53.4793 CH2           1 RES     
    3283 CH2         14.8028    19.5495    54.7016 CH2           1 RES     
    3284 CH2         15.3461    18.8641    55.9691 CH2           1 RES     
    3285 CH2         14.5287    19.3217    57.1915 CH2           1 RES     
    3286 CH2         15.0720    18.6363    58.4590 CH2           1 RES     
    3287 CH2         14.2547    19.0939    59.6814 CH2           1 RES     
    3288 CH2         14.7980    18.4084    60.9489 CH2           1 RES     
    3289 CH3         14.0177    18.8452    62.1157 CH3           1 RES     
    3290 CH2         13.9419    20.3751    40.6798 CH2           1 RES     
    3291 OE          14.6183    20.0151    41.9277 OE            1 RES     
    3292 C           13.5213    19.1944    42.5384 C             1 RES     
    3293 O           12.4311    18.9845    42.0091 O             1 RES     
    3294 CH2         13.9923    18.9593    43.8413 CH2           1 RES     
    3295 CH2         12.7994    18.2374    44.4950 CH2           1 RES     
    3296 CH2         13.0720    18.0525    45.9994 CH2           1 RES     
    3297 CH2         11.8791    17.3305    46.6531 CH2           1 RES     
    3298 CH2         12.1518    17.1456    48.1575 CH2           1 RES     
    3299 CH2         10.9589    16.4237    48.8112 CH2           1 RES     
    3300 CH2         11.2315    16.2388    50.3155 CH2           1 RES     
    3301 CH2         10.0386    15.5168    50.9693 CH2           1 RES     
    3302 CH2         10.3113    15.3320    52.4736 CH2           1 RES     
    3303 CH2          9.1184    14.6100    53.1273 CH2           1 RES     
    3304 CH2          9.3910    14.4251    54.6317 CH2           1 RES     
    3305 CH2          8.1981    13.7032    55.2854 CH2           1 RES     
    3306 CH2          8.4708    13.5183    56.7898 CH2           1 RES     
    3307 CH2          7.2779    12.7963    57.4435 CH2           1 RES     
    3308 CH2          7.5505    12.6114    58.9478 CH2           1 RES     
    3309 CH2          6.3576    11.8895    59.6016 CH2           1 RES     
    3310 CH3          6.6179    11.7130    61.0375 CH3           1 RES     
    3311 CH3         30.2438    26.4821    33.6361 CH3           1 RES     
    3312 CH3         32.5645    26.8660    33.6334 CH3           1 RES     
    3313 CH3         31.2347    27.9592    32.2844 CH3           1 RES     
    3314 NL          31.3408    27.3844    33.4714 NL            1 RES     
    3315 CH2         31.1540    28.4596    34.3361 CH2           1 RES     
    3316 CH2         31.2836    27.7586    35.7011 CH2           1 RES     
    3317 OA          31.1110    28.7552    36.7885 OA            1 RES     
    3318 P           32.5519    29.3527    37.1447 P             1 RES     
    3319 OM          33.4472    28.1285    37.6543 OM            1 RES     
    3320 OM          33.0961    30.0680    35.8210 OM            1 RES     
    3321 OA          32.4073    30.4334    38.3157 OA            1 RES     
    3322 CH2         33.7602    30.9651    38.6191 CH2           1 RES     
    3323 CH1         33.8848    31.3428    39.9178 CH1           1 RES     
    3324 OE          34.8543    30.2398    39.9830 OE            1 RES     
    3325 C           35.1962    29.4841    41.2329 C             1 RES     
    3326 O           35.5760    28.3145    41.2579 O             1 RES     
    3327 CH2         34.7805    30.3574    42.2522 CH2           1 RES     
    3328 CH2         35.0099    29.5134    43.5197 CH2           1 RES     
    3329 CH2         34.4389    30.2560    44.7421 CH2           1 RES     
    3330 CH2         34.6682    29.4120    46.0096 CH2           1 RES     
    3331 CH2         34.0972    30.1545    47.2320 CH2           1 RES     
    3332 CH2         34.3265    29.3105    48.4995 CH2           1 RES     
    3333 CH2         33.7555    30.0531    49.7218 CH2           1 RES     
    3334 CH2         33.9849    29.2091    50.9894 CH2           1 RES     
    3335 CH2         33.4139    29.9516    52.2117 CH2           1 RES     
    3336 CH2         33.6432    29.1076    53.4793 CH2           1 RES     
    3337 CH2         33.0722    29.8502    54.7016 CH2           1 RES     
    3338 CH2         33.3015    29.0062    55.9691 CH2           1 RES     
    3339 CH2         32.7305    29.7487    57.1915 CH2           1 RES     
    3340 CH2         32.9599    28.9047    58.4590 CH2           1 RES     
    3341 CH2         32.3889    29.6473    59.6814 CH2           1 RES     
    3342 CH2         32.6182    28.8033    60.9489 CH2           1 RES     
    3343 CH3         32.0731    29.5121    62.1157 CH3           1 RES     
    3344 CH2         32.6061    30.9481    40.6798 CH2           1 RES     
    3345 OE          33.0860    30.3507    41.9277 OE            1 RES     
    3346 C           31.7544    30.0286    42.5384 C             1 RES     
    3347 O           30.6696    30.2652    42.0091 O             1 RES     
    3348 CH2         32.0947    29.6270    43.8413 CH2           1 RES     
    3349 CH2         30.7138    29.4334    44.4950 CH2           1 RES     
    3350 CH2         30.8916    29.1560    45.9994 CH2           1 RES     
    3351 CH2         29.5107    28.9624    46.6531 CH2           1 RES     
    3352 CH2         29.6885    28.6851    48.1575 CH2           1 RES     
    3353 CH2         28.3077    28.4914    48.8112 CH2           1 RES     
    3354 CH2         28.4854    28.2141    50.3155 CH2           1 RES     
    3355 CH2         27.1046    28.0204    50.9693 CH2           1 RES     
    3356 CH2         27.2824    27.7431    52.4736 CH2           1 RES     
    3357 CH2         25.9015    27.5495    53.1273 CH2           1 RES     
    3358 CH2         26.0793    27.2721    54.6317 CH2           1 RES     
    3359 CH2         24.6984    27.0785    55.2854 CH2           1 RES     
    3360 CH2         24.8762    26.8011    56.7898 CH2           1 RES     
    3361 CH2         23.4954    26.6075    57.4435 CH2           1 RES     
    3362 CH2         23.6731    26.3302    58.9478 CH2           1 RES     
    3363 CH2         22.2923    26.1365    59.6016 CH2           1 RES     
    3364 CH3         22.4620    25.8718    61.0375 CH3           1 RES     
    3365 CH3         35.8150     4.1970    33.6361 CH3           1 RES     
    3366 CH3         38.1616     4.0337    33.6334 CH3           1 RES     
    3367 CH3         37.1208     5.4048    32.2844 CH3           1 RES     
    3368 NL          37.0911     4.8211    33.4714 NL            1 RES     
    3369 CH2         37.1580     5.9104    34.3361 CH2           1 RES     
    3370 CH2         37.1219     5.1984    35.7011 CH2           1 RES     
    3371 OA          37.1846     6.2079    36.7885 OA            1 RES     
    3372 P           38.7246     6.4559    37.1447 P             1 RES     
    3373 OM          39.3125     5.0578    37.6543 OM            1 RES     
    3374 OM          39.4195     7.0259    35.8210 OM            1 RES     
    3375 OA          38.8339     7.5407    38.3157 OA            1 RES     
    3376 CH2         40.2732     7.7450    38.6191 CH2           1 RES     
    3377 CH1         40.4817     8.0837    39.9178 CH1           1 RES     
    3378 OE          41.1698     6.7863    39.9830 OE            1 RES     
    3379 C           41.3276     5.9720    41.2329 C             1 RES     
    3380 O           41.4265     4.7463    41.2579 O             1 RES     
    3381 CH2         41.1252     6.9178    42.2522 CH2           1 RES     
    3382 CH2         41.1531     6.0436    43.5197 CH2           1 RES     
    3383 CH2         40.7693     6.8982    44.7421 CH2           1 RES     
    3384 CH2         40.7972     6.0240    46.0096 CH2           1 RES     
    3385 CH2         40.4135     6.8785    47.2320 CH2           1 RES     
    3386 CH2         40.4413     6.0043    48.4995 CH2           1 RES     
    3387 CH2         40.0576     6.8588    49.7218 CH2           1 RES     
    3388 CH2         40.0855     5.9847    50.9894 CH2           1 RES     
    3389 CH2         39.7017     6.8392    52.2117 CH2           1 RES     
    3390 CH2         39.7296     5.9650    53.4793 CH2           1 RES     
    3391 CH2         39.3459     6.8195    54.7016 CH2           1 RES     
    3392 CH2         39.3737     5.9453    55.9691 CH2           1 RES     
    3393 CH2         38.9900     6.7999    57.1915 CH2           1 RES     
    3394 CH2         39.0179     5.9257    58.4590 CH2           1 RES     
    3395 CH2         38.6341     6.7802    59.6814 CH2           1 RES     
    3396 CH2         38.6620     5.9060    60.9489 CH2           1 RES     
    3397 CH3         38.2957     6.7217    62.1157 CH3           1 RES     
    3398 CH2         39.1464     7.9955    40.6798 CH2           1 RES     
    3399 OE          39.4751     7.3033    41.9277 OE            1 RES     
    3400 C           38.1051     7.2979    42.5384 C             1 RES     
    3401 O           37.1044     7.7790    42.0091 O             1 RES     
    3402 CH2         38.3432     6.8285    43.8413 CH2           1 RES     
    3403 CH2         36.9550     6.9595    44.4950 CH2           1 RES     
    3404 CH2         37.0638     6.6486    45.9994 CH2           1 RES     
    3405 CH2         35.6756     6.7796    46.6531 CH2           1 RES     
    3406 CH2         35.7844     6.4687    48.1575 CH2           1 RES     
    3407 CH2         34.3962     6.5997    48.8112 CH2           1 RES     
    3408 CH2         34.5050     6.2888    50.3155 CH2           1 RES     
    3409 CH2         33.1168     6.4198    50.9693 CH2           1 RES     
    3410 CH2         33.2256     6.1089    52.4736 CH2           1 RES     
    3411 CH2         31.8375     6.2399    53.1273 CH2           1 RES     
    3412 CH2         31.9463     5.9290    54.6317 CH2           1 RES     
    3413 CH2         30.5581     6.0600    55.2854 CH2           1 RES     
    3414 CH2         30.6669     5.7491    56.7898 CH2           1 RES     
    3415 CH2         29.2787     5.8801    57.4435 CH2           1 RES     
    3416 CH2         29.3875     5.5692    58.9478 CH2           1 RES     
    3417 CH2         27.9993     5.7002    59.6016 CH2           1 RES     
    3418 CH3         28.1031     5.4034    61.0375 CH3           1 RES     
    3419 CH3         24.6725    37.6246    33.6361 CH3           1 RES     
    3420 CH3         26.6523    38.8949    33.6334 CH3           1 RES     
    3421 CH3         24.9987    39.3732    32.2844 CH3           1 RES     
    3422 NL          25.3234    38.8872    33.4714 NL            1 RES     
    3423 CH2         24.7266    39.8009    34.3361 CH2           1 RES     
    3424 CH2         25.1228    39.2083    35.7011 CH2           1 RES     
    3425 OA          24.5703    40.0554    36.7885 OA            1 RES     
    3426 P           25.6575    41.1739    37.1447 P             1 RES     
    3427 OM          26.9639    40.4035    37.6543 OM            1 RES     
    3428 OM          25.8745    42.0461    35.8210 OM            1 RES     
    3429 OA          25.0974    42.1094    38.3157 OA            1 RES     
    3430 CH2         26.1298    43.1327    38.6191 CH2           1 RES     
    3431 CH1         26.0949    43.5289    39.9178 CH1           1 RES     
    3432 OE          27.4215    42.8991    39.9830 OE            1 RES     
    3433 C           28.0344    42.3402    41.2329 C             1 RES     
    3434 O           28.8456    41.4160    41.2579 O             1 RES     
    3435 CH2         27.3072    42.9780    42.2522 CH2           1 RES     
    3436 CH2         27.8516    42.2934    43.5197 CH2           1 RES     
    3437 CH2         27.0335    42.7497    44.7421 CH2           1 RES     
    3438 CH2         27.5779    42.0651    46.0096 CH2           1 RES     
    3439 CH2         26.7598    42.5214    47.2320 CH2           1 RES     
    3440 CH2         27.3042    41.8369    48.4995 CH2           1 RES     
    3441 CH2         26.4861    42.2932    49.7218 CH2           1 RES     
    3442 CH2         27.0305    41.6086    50.9894 CH2           1 RES     
    3443 CH2         26.2124    42.0649    52.2117 CH2           1 RES     
    3444 CH2         26.7568    41.3803    53.4793 CH2           1 RES     
    3445 CH2         25.9387    41.8366    54.7016 CH2           1 RES     
    3446 CH2         26.4831    41.1520    55.9691 CH2           1 RES     
    3447 CH2         25.6650    41.6083    57.1915 CH2           1 RES     
    3448 CH2         26.2093    40.9238    58.4590 CH2           1 RES     
    3449 CH2         25.3912    41.3800    59.6814 CH2           1 RES     
    3450 CH2         25.9356    40.6955    60.9489 CH2           1 RES     
    3451 CH3         25.1547    41.1310    62.1157 CH3           1 RES     
    3452 CH2         25.0765    42.6608    40.6798 CH2           1 RES     
    3453 OE          25.7535    42.3018    41.9277 OE            1 RES     
    3454 C           24.6577    41.4794    42.5384 C             1 RES     
    3455 O           23.5678    41.2678    42.0091 O             1 RES     
    3456 CH2         25.1291    41.2451    43.8413 CH2           1 RES     
    3457 CH2         23.9373    40.5212    44.4950 CH2           1 RES     
    3458 CH2         24.2103    40.3368    45.9994 CH2           1 RES     
    3459 CH2         23.0185    39.6129    46.6531 CH2           1 RES     
    3460 CH2         23.2914    39.4285    48.1575 CH2           1 RES     
    3461 CH2         22.0997    38.7047    48.8112 CH2           1 RES     
    3462 CH2         22.3726    38.5202    50.3155 CH2           1 RES     
    3463 CH2         21.1809    37.7964    50.9693 CH2           1 RES     
    3464 CH2         21.4538    37.6119    52.4736 CH2           1 RES     
    3465 CH2         20.2621    36.8881    53.1273 CH2           1 RES     
    3466 CH2         20.5350    36.7036    54.6317 CH2           1 RES     
    3467 CH2         19.3432    35.9798    55.2854 CH2           1 RES     
    3468 CH2         19.6162    35.7953    56.7898 CH2           1 RES     
    3469 CH2         18.4244    35.0715    57.4435 CH2           1 RES     
    3470 CH2         18.6974    34.8870    58.9478 CH2           1 RES     
    3471 CH2         17.5056    34.1632    59.6016 CH2           1 RES     
    3472 CH3         17.7662    33.9871    61.0375 CH3           1 RES     
    3473 CH3         30.2438    20.9108    33.6361 CH3           1 RES     
    3474 CH3         32.3326    21.9923    33.6334 CH3           1 RES     
    3475 CH3         30.7304    22.6217    32.2844 CH3           1 RES     
    3476 NL          31.0088    22.1077    33.4714 NL            1 RES     
    3477 CH2         30.4991    23.0727    34.3361 CH2           1 RES     
    3478 CH2         30.8388    22.4460    35.7011 CH2           1 RES     
    3479 OA          30.3671    23.3406    36.7885 OA            1 RES     
    3480 P           31.5531    24.3537    37.1447 P             1 RES     
    3481 OM          32.7826    23.4656    37.6543 OM            1 RES     
    3482 OM          31.8500    25.2021    35.8210 OM            1 RES     
    3483 OA          31.0821    25.3370    38.3157 OA            1 RES     
    3484 CH2         32.2048    26.2603    38.6191 CH2           1 RES     
    3485 CH1         32.2068    26.6581    39.9178 CH1           1 RES     
    3486 OE          33.4694    25.9081    39.9830 OE            1 RES     
    3487 C           34.0278    25.2949    41.2329 C             1 RES     
    3488 O           34.7500    24.2995    41.2579 O             1 RES     
    3489 CH2         33.3629    25.9972    42.2522 CH2           1 RES     
    3490 CH2         33.8415    25.2652    43.5197 CH2           1 RES     
    3491 CH2         33.0692    25.7953    44.7421 CH2           1 RES     
    3492 CH2         33.5478    25.0633    46.0096 CH2           1 RES     
    3493 CH2         32.7755    25.5933    47.2320 CH2           1 RES     
    3494 CH2         33.2542    24.8613    48.4995 CH2           1 RES     
    3495 CH2         32.4818    25.3914    49.7218 CH2           1 RES     
    3496 CH2         32.9605    24.6594    50.9894 CH2           1 RES     
    3497 CH2         32.1882    25.1894    52.2117 CH2           1 RES     
    3498 CH2         32.6668    24.4574    53.4793 CH2           1 RES     
    3499 CH2         31.8945    24.9875    54.7016 CH2           1 RES     
    3500 CH2         32.3732    24.2555    55.9691 CH2           1 RES     
    3501 CH2         31.6008    24.7855    57.1915 CH2           1 RES     
    3502 CH2         32.0795    24.0535    58.4590 CH2           1 RES     
    3503 CH2         31.3072    24.5836    59.6814 CH2           1 RES     
    3504 CH2         31.7858    23.8516    60.9489 CH2           1 RES     
    3505 CH3         31.0486    24.3575    62.1157 CH3           1 RES     
    3506 CH2         31.1123    25.8879    40.6798 CH2           1 RES     
    3507 OE          31.7532    25.4679    41.9277 OE            1 RES     
    3508 C           30.5860    24.7504    42.5384 C             1 RES     
    3509 O           29.4812    24.6406    42.0091 O             1 RES     
    3510 CH2         31.0336    24.4735    43.8413 CH2           1 RES     
    3511 CH2         29.7799    23.8631    44.4950 CH2           1 RES     
    3512 CH2         30.0346    23.6542    45.9994 CH2           1 RES     
    3513 CH2         28.7810    23.0438    46.6531 CH2           1 RES     
    3514 CH2         29.0357    22.8349    48.1575 CH2           1 RES     
    3515 CH2         27.7820    22.2245    48.8112 CH2           1 RES     
    3516 CH2         28.0367    22.0155    50.3155 CH2           1 RES     
    3517 CH2         26.7830    21.4051    50.9693 CH2           1 RES     
    3518 CH2         27.0377    21.1962    52.4736 CH2           1 RES     
    3519 CH2         25.7841    20.5858    53.1273 CH2           1 RES     
    3520 CH2         26.0388    20.3769    54.6317 CH2           1 RES     
    3521 CH2         24.7851    19.7665    55.2854 CH2           1 RES     
    3522 CH2         25.0398    19.5576    56.7898 CH2           1 RES     
    3523 CH2         23.7861    18.9472    57.4435 CH2           1 RES     
    3524 CH2         24.0408    18.7383    58.9478 CH2           1 RES     
    3525 CH2         22.7872    18.1279    59.6016 CH2           1 RES     
    3526 CH3         23.0303    17.9284    61.0375 CH3           1 RES     
    3527 CH3         24.6725    32.0533    33.6361 CH3           1 RES     
    3528 CH3         26.8050    33.0460    33.6334 CH3           1 RES     
    3529 CH3         25.2307    33.7422    32.2844 CH3           1 RES     
    3530 NL          25.4872    33.2170    33.4714 NL            1 RES     
    3531 CH2         25.0186    34.2026    34.3361 CH2           1 RES     
    3532 CH2         25.3315    33.5621    35.7011 CH2           1 RES     
    3533 OA          24.8979    34.4758    36.7885 OA            1 RES     
    3534 P           26.1255    35.4381    37.1447 P             1 RES     
    3535 OM          27.3165    34.4991    37.6543 OM            1 RES     
    3536 OM          26.4578    36.2732    35.8210 OM            1 RES     
    3537 OA          25.6962    36.4404    38.3157 OA            1 RES     
    3538 CH2         26.8568    37.3157    38.6191 CH2           1 RES     
    3539 CH1         26.8754    37.7130    39.9178 CH1           1 RES     
    3540 OE          28.1054    36.9106    39.9830 OE            1 RES     
    3541 C           28.6376    36.2744    41.2329 C             1 RES     
    3542 O           29.3173    35.2496    41.2579 O             1 RES     
    3543 CH2         28.0027    37.0041    42.2522 CH2           1 RES     
    3544 CH2         28.4502    36.2526    43.5197 CH2           1 RES     
    3545 CH2         27.7008    36.8147    44.7421 CH2           1 RES     
    3546 CH2         28.1483    36.0632    46.0096 CH2           1 RES     
    3547 CH2         27.3989    36.6253    47.2320 CH2           1 RES     
    3548 CH2         27.8464    35.8738    48.4995 CH2           1 RES     
    3549 CH2         27.0970    36.4358    49.7218 CH2           1 RES     
    3550 CH2         27.5445    35.6843    50.9894 CH2           1 RES     
    3551 CH2         26.7951    36.2464    52.2117 CH2           1 RES     
    3552 CH2         27.2426    35.4949    53.4793 CH2           1 RES     
    3553 CH2         26.4932    36.0570    54.7016 CH2           1 RES     
    3554 CH2         26.9406    35.3055    55.9691 CH2           1 RES     
    3555 CH2         26.1913    35.8676    57.1915 CH2           1 RES     
    3556 CH2         26.6387    35.1161    58.4590 CH2           1 RES     
    3557 CH2         25.8894    35.6781    59.6814 CH2           1 RES     
    3558 CH2         26.3368    34.9266    60.9489 CH2           1 RES     
    3559 CH3         25.6215    35.4632    62.1157 CH3           1 RES     
    3560 CH2         25.7495    36.9895    40.6798 CH2           1 RES     
    3561 OE          26.3722    36.5429    41.9277 OE            1 RES     
    3562 C           25.1759    35.8751    42.5384 C             1 RES     
    3563 O           24.0674    35.8119    42.0091 O             1 RES     
    3564 CH2         25.6114    35.5797    43.8413 CH2           1 RES     
    3565 CH2         24.3332    35.0225    44.4950 CH2           1 RES     
    3566 CH2         24.5789    34.8031    45.9994 CH2           1 RES     
    3567 CH2         23.3007    34.2459    46.6531 CH2           1 RES     
    3568 CH2         23.5464    34.0265    48.1575 CH2           1 RES     
    3569 CH2         22.2682    33.4693    48.8112 CH2           1 RES     
    3570 CH2         22.5138    33.2499    50.3155 CH2           1 RES     
    3571 CH2         21.2356    32.6927    50.9693 CH2           1 RES     
    3572 CH2         21.4813    32.4733    52.4736 CH2           1 RES     
    3573 CH2         20.2031    31.9161    53.1273 CH2           1 RES     
    3574 CH2         20.4488    31.6967    54.6317 CH2           1 RES     
    3575 CH2         19.1706    31.1396    55.2854 CH2           1 RES     
    3576 CH2         19.4162    30.9201    56.7898 CH2           1 RES     
    3577 CH2         18.1380    30.3630    57.4435 CH2           1 RES     
    3578 CH2         18.3837    30.1435    58.9478 CH2           1 RES     
    3579 CH2         17.1055    29.5864    59.6016 CH2           1 RES     
    3580 CH3         17.3400    29.3769    61.0375 CH3           1 RES     
    3581 CH3         24.6725     4.1970    33.6361 CH3           1 RES     
    3582 CH3         26.8223     5.1517    33.6334 CH3           1 RES     
    3583 CH3         25.2606     5.8757    32.2844 CH3           1 RES     
    3584 NL          25.5077     5.3460    33.4714 NL            1 RES     
    3585 CH2         25.0567     6.3398    34.3361 CH2           1 RES     
    3586 CH2         25.3583     5.6939    35.7011 CH2           1 RES     
    3587 OA          24.9409     6.6151    36.7885 OA            1 RES     
    3588 P           26.1854     7.5555    37.1447 P             1 RES     
    3589 OM          27.3596     6.5954    37.6543 OM            1 RES     
    3590 OM          26.5325     8.3845    35.8210 OM            1 RES     
    3591 OA          25.7740     8.5652    38.3157 OA            1 RES     
    3592 CH2         26.9500     9.4197    38.6191 CH2           1 RES     
    3593 CH1         26.9757     9.8166    39.9178 CH1           1 RES     
    3594 OE          28.1912     8.9925    39.9830 OE            1 RES     
    3595 C           28.7120     8.3469    41.2329 C             1 RES     
    3596 O           29.3734     7.3102    41.2579 O             1 RES     
    3597 CH2         28.0902     9.0878    42.2522 CH2           1 RES     
    3598 CH2         28.5242     8.3285    43.5197 CH2           1 RES     
    3599 CH2         27.7850     8.9038    44.7421 CH2           1 RES     
    3600 CH2         28.2190     8.1445    46.0096 CH2           1 RES     
    3601 CH2         27.4798     8.7198    47.2320 CH2           1 RES     
    3602 CH2         27.9138     7.9604    48.4995 CH2           1 RES     
    3603 CH2         27.1745     8.5357    49.7218 CH2           1 RES     
    3604 CH2         27.6086     7.7764    50.9894 CH2           1 RES     
    3605 CH2         26.8693     8.3517    52.2117 CH2           1 RES     
    3606 CH2         27.3033     7.5924    53.4793 CH2           1 RES     
    3607 CH2         26.5641     8.1677    54.7016 CH2           1 RES     
    3608 CH2         26.9981     7.4083    55.9691 CH2           1 RES     
    3609 CH2         26.2589     7.9837    57.1915 CH2           1 RES     
    3610 CH2         26.6929     7.2243    58.4590 CH2           1 RES     
    3611 CH2         25.9536     7.7996    59.6814 CH2           1 RES     
    3612 CH2         26.3877     7.0403    60.9489 CH2           1 RES     
    3613 CH3         25.6820     7.5894    62.1157 CH3           1 RES     
    3614 CH2         25.8371     9.1133    40.6798 CH2           1 RES     
    3615 OE          26.4517     8.6557    41.9277 OE            1 RES     
    3616 C           25.2438     8.0093    42.5384 C             1 RES     
    3617 O           24.1343     7.9658    42.0091 O             1 RES     
    3618 CH2         25.6740     7.7061    43.8413 CH2           1 RES     
    3619 CH2         24.3861     7.1718    44.4950 CH2           1 RES     
    3620 CH2         24.6278     6.9480    45.9994 CH2           1 RES     
    3621 CH2         23.3399     6.4137    46.6531 CH2           1 RES     
    3622 CH2         23.5816     6.1899    48.1575 CH2           1 RES     
    3623 CH2         22.2937     5.6555    48.8112 CH2           1 RES     
    3624 CH2         22.5355     5.4318    50.3155 CH2           1 RES     
    3625 CH2         21.2475     4.8974    50.9693 CH2           1 RES     
    3626 CH2         21.4893     4.6737    52.4736 CH2           1 RES     
    3627 CH2         20.2014     4.1393    53.1273 CH2           1 RES     
    3628 CH2         20.4431     3.9156    54.6317 CH2           1 RES     
    3629 CH2         19.1552     3.3812    55.2854 CH2           1 RES     
    3630 CH2         19.3969     3.1574    56.7898 CH2           1 RES     
    3631 CH2         18.1090     2.6231    57.4435 CH2           1 RES     
    3632 CH2         18.3507     2.3993    58.9478 CH2           1 RES     
    3633 CH2         17.0628     1.8650    59.6016 CH2           1 RES     
    3634 CH3         17.2936     1.6514    61.0375 CH3           1 RES     
    3635 CH3          7.9587    43.1958    33.6361 CH3           1 RES     
    3636 CH3         10.2962    43.4594    33.6334 CH3           1 RES     
    3637 CH3          9.0247    44.6198    32.2844 CH3           1 RES     
    3638 NL           9.1010    44.0403    33.4714 NL            1 RES     
    3639 CH2          8.9699    45.1237    34.3361 CH2           1 RES     
    3640 CH2          9.0631    44.4170    35.7011 CH2           1 RES     
    3641 OA           8.9423    45.4211    36.7885 OA            1 RES     
    3642 P           10.4121    45.9434    37.1447 P             1 RES     
    3643 OM          11.2430    44.6746    37.6543 OM            1 RES     
    3644 OM          10.9926    46.6296    35.8210 OM            1 RES     
    3645 OA          10.3236    47.0301    38.3157 OA            1 RES     
    3646 CH2         11.7022    47.4912    38.6191 CH2           1 RES     
    3647 CH1         11.8461    47.8619    39.9178 CH1           1 RES     
    3648 OE          12.7573    46.7103    39.9830 OE            1 RES     
    3649 C           13.0597    45.9380    41.2329 C             1 RES     
    3650 O           13.3785    44.7502    41.2579 O             1 RES     
    3651 CH2         12.6897    46.8316    42.2522 CH2           1 RES     
    3652 CH2         12.8751    45.9768    43.5197 CH2           1 RES     
    3653 CH2         12.3432    46.7479    44.7421 CH2           1 RES     
    3654 CH2         12.5287    45.8932    46.0096 CH2           1 RES     
    3655 CH2         11.9968    46.6643    47.2320 CH2           1 RES     
    3656 CH2         12.1822    45.8095    48.4995 CH2           1 RES     
    3657 CH2         11.6503    46.5806    49.7218 CH2           1 RES     
    3658 CH2         11.8357    45.7259    50.9894 CH2           1 RES     
    3659 CH2         11.3039    46.4970    52.2117 CH2           1 RES     
    3660 CH2         11.4893    45.6422    53.4793 CH2           1 RES     
    3661 CH2         10.9574    46.4133    54.7016 CH2           1 RES     
    3662 CH2         11.1428    45.5586    55.9691 CH2           1 RES     
    3663 CH2         10.6110    46.3297    57.1915 CH2           1 RES     
    3664 CH2         10.7964    45.4749    58.4590 CH2           1 RES     
    3665 CH2         10.2645    46.2460    59.6814 CH2           1 RES     
    3666 CH2         10.4499    45.3912    60.9489 CH2           1 RES     
    3667 CH3          9.9422    46.1273    62.1157 CH3           1 RES     
    3668 CH2         10.5487    47.5338    40.6798 CH2           1 RES     
    3669 OE          10.9971    46.9125    41.9277 OE            1 RES     
    3670 C            9.6506    46.6595    42.5384 C             1 RES     
    3671 O            8.5795    46.9519    42.0091 O             1 RES     
    3672 CH2          9.9697    46.2409    43.8413 CH2           1 RES     
    3673 CH2          8.5807    46.1189    44.4950 CH2           1 RES     
    3674 CH2          8.7439    45.8328    45.9994 CH2           1 RES     
    3675 CH2          7.3549    45.7107    46.6531 CH2           1 RES     
    3676 CH2          7.5181    45.4246    48.1575 CH2           1 RES     
    3677 CH2          6.1290    45.3026    48.8112 CH2           1 RES     
    3678 CH2          6.2923    45.0164    50.3155 CH2           1 RES     
    3679 CH2          4.9032    44.8944    50.9693 CH2           1 RES     
    3680 CH2          5.0664    44.6082    52.4736 CH2           1 RES     
    3681 CH2          3.6774    44.4862    53.1273 CH2           1 RES     
    3682 CH2          3.8406    44.2001    54.6317 CH2           1 RES     
    3683 CH2          2.4516    44.0780    55.2854 CH2           1 RES     
    3684 CH2          2.6148    43.7919    56.7898 CH2           1 RES     
    3685 CH2          1.2258    43.6698    57.4435 CH2           1 RES     
    3686 CH2          1.3890    43.3837    58.9478 CH2           1 RES     
    3687 CH2          0.0000    43.2617    59.6016 CH2           1 RES     
    3688 CH3          0.1558    42.9885    61.0375 CH3           1 RES     
    3689 CH3         19.1012    32.0533    33.6361 CH3           1 RES     
    3690 CH3         21.3790    31.4659    33.6334 CH3           1 RES     
    3691 CH3         20.6050    33.0035    32.2844 CH3           1 RES     
    3692 NL          20.4695    32.4349    33.4714 NL            1 RES     
    3693 CH2         20.7335    33.4938    34.3361 CH2           1 RES     
    3694 CH2         20.5685    32.8003    35.7011 CH2           1 RES     
    3695 OA          20.8138    33.7815    36.7885 OA            1 RES     
    3696 P           22.3732    33.7452    37.1447 P             1 RES     
    3697 OM          22.6969    32.2635    37.6543 OM            1 RES     
    3698 OM          23.1602    34.1793    35.8210 OM            1 RES     
    3699 OA          22.6780    34.7921    38.3157 OA            1 RES     
    3700 CH2         24.1304    34.7311    38.6191 CH2           1 RES     
    3701 CH1         24.3971    35.0262    39.9178 CH1           1 RES     
    3702 OE          24.8377    33.6253    39.9830 OE            1 RES     
    3703 C           24.8447    32.7959    41.2329 C             1 RES     
    3704 O           24.7190    31.5726    41.2579 O             1 RES     
    3705 CH2         24.8178    33.7627    42.2522 CH2           1 RES     
    3706 CH2         24.6861    32.8981    43.5197 CH2           1 RES     
    3707 CH2         24.4643    33.8082    44.7421 CH2           1 RES     
    3708 CH2         24.3326    32.9435    46.0096 CH2           1 RES     
    3709 CH2         24.1107    33.8536    47.2320 CH2           1 RES     
    3710 CH2         23.9791    32.9889    48.4995 CH2           1 RES     
    3711 CH2         23.7572    33.8990    49.7218 CH2           1 RES     
    3712 CH2         23.6256    33.0343    50.9894 CH2           1 RES     
    3713 CH2         23.4037    33.9444    52.2117 CH2           1 RES     
    3714 CH2         23.2721    33.0797    53.4793 CH2           1 RES     
    3715 CH2         23.0502    33.9898    54.7016 CH2           1 RES     
    3716 CH2         22.9186    33.1251    55.9691 CH2           1 RES     
    3717 CH2         22.6967    34.0352    57.1915 CH2           1 RES     
    3718 CH2         22.5651    33.1705    58.4590 CH2           1 RES     
    3719 CH2         22.3432    34.0806    59.6814 CH2           1 RES     
    3720 CH2         22.2116    33.2159    60.9489 CH2           1 RES     
    3721 CH3         21.9998    34.0846    62.1157 CH3           1 RES     
    3722 CH2         23.0680    35.1824    40.6798 CH2           1 RES     
    3723 OE          23.2653    34.4420    41.9277 OE            1 RES     
    3724 C           21.9172    34.6859    42.5384 C             1 RES     
    3725 O           21.0208    35.3410    42.0091 O             1 RES     
    3726 CH2         22.0660    34.1810    43.8413 CH2           1 RES     
    3727 CH2         20.7248    34.5624    44.4950 CH2           1 RES     
    3728 CH2         20.7752    34.2368    45.9994 CH2           1 RES     
    3729 CH2         19.4340    34.6182    46.6531 CH2           1 RES     
    3730 CH2         19.4844    34.2927    48.1575 CH2           1 RES     
    3731 CH2         18.1432    34.6740    48.8112 CH2           1 RES     
    3732 CH2         18.1936    34.3485    50.3155 CH2           1 RES     
    3733 CH2         16.8524    34.7299    50.9693 CH2           1 RES     
    3734 CH2         16.9029    34.4043    52.4736 CH2           1 RES     
    3735 CH2         15.5617    34.7857    53.1273 CH2           1 RES     
    3736 CH2         15.6121    34.4602    54.6317 CH2           1 RES     
    3737 CH2         14.2709    34.8415    55.2854 CH2           1 RES     
    3738 CH2         14.3213    34.5160    56.7898 CH2           1 RES     
    3739 CH2         12.9801    34.8974    57.4435 CH2           1 RES     
    3740 CH2         13.0305    34.5718    58.9478 CH2           1 RES     
    3741 CH2         11.6893    34.9532    59.6016 CH2           1 RES     
    3742 CH3         11.7375    34.6425    61.0375 CH3           1 RES     
    3743 CH3         19.1012    15.3395    33.6361 CH3           1 RES     
    3744 CH3         21.4468    15.5164    33.6334 CH3           1 RES     
    3745 CH3         20.2192    16.7231    32.2844 CH3           1 RES     
    3746 NL          20.2739    16.1412    33.4714 NL            1 RES     
    3747 CH2         20.1830    17.2287    34.3361 CH2           1 RES     
    3748 CH2         20.2500    16.5190    35.7011 CH2           1 RES     
    3749 OA          20.1664    17.5269    36.7885 OA            1 RES     
    3750 P           21.6545    17.9945    37.1447 P             1 RES     
    3751 OM          22.4379    16.6958    37.6543 OM            1 RES     
    3752 OM          22.2600    18.6588    35.8210 OM            1 RES     
    3753 OA          21.6062    19.0837    38.3157 OA            1 RES     
    3754 CH2         23.0010    19.4935    38.6191 CH2           1 RES     
    3755 CH1         23.1585    19.8587    39.9178 CH1           1 RES     
    3756 OE          24.0265    18.6741    39.9830 OE            1 RES     
    3757 C           24.3001    17.8912    41.2329 C             1 RES     
    3758 O           24.5748    16.6925    41.2579 O             1 RES     
    3759 CH2         23.9634    18.7979    42.2522 CH2           1 RES     
    3760 CH2         24.1171    17.9368    43.5197 CH2           1 RES     
    3761 CH2         23.6141    18.7271    44.7421 CH2           1 RES     
    3762 CH2         23.7678    17.8661    46.0096 CH2           1 RES     
    3763 CH2         23.2648    18.6563    47.2320 CH2           1 RES     
    3764 CH2         23.4185    17.7953    48.4995 CH2           1 RES     
    3765 CH2         22.9155    18.5855    49.7218 CH2           1 RES     
    3766 CH2         23.0692    17.7245    50.9894 CH2           1 RES     
    3767 CH2         22.5662    18.5147    52.2117 CH2           1 RES     
    3768 CH2         22.7199    17.6537    53.4793 CH2           1 RES     
    3769 CH2         22.2169    18.4439    54.7016 CH2           1 RES     
    3770 CH2         22.3705    17.5829    55.9691 CH2           1 RES     
    3771 CH2         21.8676    18.3731    57.1915 CH2           1 RES     
    3772 CH2         22.0212    17.5121    58.4590 CH2           1 RES     
    3773 CH2         21.5182    18.3023    59.6814 CH2           1 RES     
    3774 CH2         21.6719    17.4413    60.9489 CH2           1 RES     
    3775 CH3         21.1918    18.1956    62.1157 CH3           1 RES     
    3776 CH2         21.8499    19.5788    40.6798 CH2           1 RES     
    3777 OE          22.2750    18.9413    41.9277 OE            1 RES     
    3778 C           20.9201    18.7383    42.5384 C             1 RES     
    3779 O           19.8605    19.0701    42.0091 O             1 RES     
    3780 CH2         21.2234    18.3082    43.8413 CH2           1 RES     
    3781 CH2         19.8308    18.2376    44.4950 CH2           1 RES     
    3782 CH2         19.9834    17.9456    45.9994 CH2           1 RES     
    3783 CH2         18.5908    17.8750    46.6531 CH2           1 RES     
    3784 CH2         18.7433    17.5831    48.1575 CH2           1 RES     
    3785 CH2         17.3507    17.5125    48.8112 CH2           1 RES     
    3786 CH2         17.5032    17.2205    50.3155 CH2           1 RES     
    3787 CH2         16.1107    17.1499    50.9693 CH2           1 RES     
    3788 CH2         16.2632    16.8579    52.4736 CH2           1 RES     
    3789 CH2         14.8706    16.7873    53.1273 CH2           1 RES     
    3790 CH2         15.0231    16.4953    54.6317 CH2           1 RES     
    3791 CH2         13.6305    16.4248    55.2854 CH2           1 RES     
    3792 CH2         13.7830    16.1328    56.7898 CH2           1 RES     
    3793 CH2         12.3905    16.0622    57.4435 CH2           1 RES     
    3794 CH2         12.5430    15.7702    58.9478 CH2           1 RES     
    3795 CH2         11.1504    15.6996    59.6016 CH2           1 RES     
    3796 CH3         11.2960    15.4209    61.0375 CH3           1 RES     
    3797 CH3         35.8150     9.7683    33.6361 CH3           1 RES     
    3798 CH3         38.1658     9.8500    33.6334 CH3           1 RES     
    3799 CH3         36.9881    11.1054    32.2844 CH3           1 RES     
    3800 NL          37.0192    10.5217    33.4714 NL            1 RES     
    3801 CH2         36.9724    11.6120    34.3361 CH2           1 RES     
    3802 CH2         37.0107    10.9002    35.7011 CH2           1 RES     
    3803 OA          36.9680    11.9107    36.7885 OA            1 RES     
    3804 P           38.4738    12.3176    37.1447 P             1 RES     
    3805 OM          39.2039    10.9882    37.6543 OM            1 RES     
    3806 OM          39.1057    12.9568    35.8210 OM            1 RES     
    3807 OA          38.4697    13.4079    38.3157 OA            1 RES     
    3808 CH2         39.8799    13.7608    38.6191 CH2           1 RES     
    3809 CH1         40.0521    14.1193    39.9178 CH1           1 RES     
    3810 OE          40.8714    12.9005    39.9830 OE            1 RES     
    3811 C           41.1130    12.1071    41.2329 C             1 RES     
    3812 O           41.3389    10.8983    41.2579 O             1 RES     
    3813 CH2         40.8134    13.0267    42.2522 CH2           1 RES     
    3814 CH2         40.9320    12.1602    43.5197 CH2           1 RES     
    3815 CH2         40.4615    12.9701    44.7421 CH2           1 RES     
    3816 CH2         40.5801    12.1036    46.0096 CH2           1 RES     
    3817 CH2         40.1096    12.9136    47.2320 CH2           1 RES     
    3818 CH2         40.2282    12.0470    48.4995 CH2           1 RES     
    3819 CH2         39.7577    12.8570    49.7218 CH2           1 RES     
    3820 CH2         39.8763    11.9905    50.9894 CH2           1 RES     
    3821 CH2         39.4058    12.8004    52.2117 CH2           1 RES     
    3822 CH2         39.5244    11.9339    53.4793 CH2           1 RES     
    3823 CH2         39.0539    12.7438    54.7016 CH2           1 RES     
    3824 CH2         39.1726    11.8773    55.9691 CH2           1 RES     
    3825 CH2         38.7020    12.6873    57.1915 CH2           1 RES     
    3826 CH2         38.8207    11.8207    58.4590 CH2           1 RES     
    3827 CH2         38.3501    12.6307    59.6814 CH2           1 RES     
    3828 CH2         38.4688    11.7642    60.9489 CH2           1 RES     
    3829 CH3         38.0196    12.5373    62.1157 CH3           1 RES     
    3830 CH2         38.7332    13.8927    40.6798 CH2           1 RES     
    3831 OE          39.1321    13.2384    41.9277 OE            1 RES     
    3832 C           37.7701    13.0905    42.5384 C             1 RES     
    3833 O           36.7248    13.4650    42.0091 O             1 RES     
    3834 CH2         38.0558    12.6485    43.8413 CH2           1 RES     
    3835 CH2         36.6615    12.6344    44.4950 CH2           1 RES     
    3836 CH2         36.8020    12.3365    45.9994 CH2           1 RES     
    3837 CH2         35.4077    12.3224    46.6531 CH2           1 RES     
    3838 CH2         35.5483    12.0245    48.1575 CH2           1 RES     
    3839 CH2         34.1540    12.0104    48.8112 CH2           1 RES     
    3840 CH2         34.2946    11.7124    50.3155 CH2           1 RES     
    3841 CH2         32.9003    11.6983    50.9693 CH2           1 RES     
    3842 CH2         33.0408    11.4004    52.4736 CH2           1 RES     
    3843 CH2         31.6465    11.3863    53.1273 CH2           1 RES     
    3844 CH2         31.7871    11.0884    54.6317 CH2           1 RES     
    3845 CH2         30.3928    11.0743    55.2854 CH2           1 RES     
    3846 CH2         30.5333    10.7764    56.7898 CH2           1 RES     
    3847 CH2         29.1390    10.7623    57.4435 CH2           1 RES     
    3848 CH2         29.2796    10.4644    58.9478 CH2           1 RES     
    3849 CH2         27.8853    10.4503    59.6016 CH2           1 RES     
    3850 CH3         28.0195    10.1659    61.0375 CH3           1 RES     
    3851 CH3         19.1012     9.7683    33.6361 CH3           1 RES     
    3852 CH3         21.3858    10.3283    33.6334 CH3           1 RES     
    3853 CH3         19.9766    11.3167    32.2844 CH3           1 RES     
    3854 NL          20.1262    10.7517    33.4714 NL            1 RES     
    3855 CH2         19.8578    11.8095    34.3361 CH2           1 RES     
    3856 CH2         20.0405    11.1205    35.7011 CH2           1 RES     
    3857 OA          19.7924    12.1010    36.7885 OA            1 RES     
    3858 P           21.1835    12.8068    37.1447 P             1 RES     
    3859 OM          22.1696    11.6545    37.6543 OM            1 RES     
    3860 OM          21.6715    13.5615    35.8210 OM            1 RES     
    3861 OA          20.9568    13.8733    38.3157 OA            1 RES     
    3862 CH2         22.2652    14.5067    38.6191 CH2           1 RES     
    3863 CH1         22.3606    14.8928    39.9178 CH1           1 RES     
    3864 OE          23.4115    13.8670    39.9830 OE            1 RES     
    3865 C           23.8101    13.1397    41.2329 C             1 RES     
    3866 O           24.2780    12.0024    41.2579 O             1 RES     
    3867 CH2         23.3289    13.9787    42.2522 CH2           1 RES     
    3868 CH2         23.6220    13.1546    43.5197 CH2           1 RES     
    3869 CH2         22.9960    13.8515    44.7421 CH2           1 RES     
    3870 CH2         23.2891    13.0274    46.0096 CH2           1 RES     
    3871 CH2         22.6630    13.7242    47.2320 CH2           1 RES     
    3872 CH2         22.9562    12.9002    48.4995 CH2           1 RES     
    3873 CH2         22.3301    13.5970    49.7218 CH2           1 RES     
    3874 CH2         22.6232    12.7729    50.9894 CH2           1 RES     
    3875 CH2         21.9972    13.4698    52.2117 CH2           1 RES     
    3876 CH2         22.2903    12.6457    53.4793 CH2           1 RES     
    3877 CH2         21.6643    13.3425    54.7016 CH2           1 RES     
    3878 CH2         21.9574    12.5185    55.9691 CH2           1 RES     
    3879 CH2         21.3313    13.2153    57.1915 CH2           1 RES     
    3880 CH2         21.6245    12.3912    58.4590 CH2           1 RES     
    3881 CH2         20.9984    13.0880    59.6814 CH2           1 RES     
    3882 CH2         21.2915    12.2640    60.9489 CH2           1 RES     
    3883 CH3         20.6939    12.9291    62.1157 CH3           1 RES     
    3884 CH2         21.1157    14.4016    40.6798 CH2           1 RES     
    3885 OE          21.6398    13.8427    41.9277 OE            1 RES     
    3886 C           20.3367    13.4198    42.5384 C             1 RES     
    3887 O           19.2370    13.5729    42.0091 O             1 RES     
    3888 CH2         20.7066    13.0454    43.8413 CH2           1 RES     
    3889 CH2         19.3446    12.7469    44.4950 CH2           1 RES     
    3890 CH2         19.5430    12.4839    45.9994 CH2           1 RES     
    3891 CH2         18.1810    12.1854    46.6531 CH2           1 RES     
    3892 CH2         18.3794    11.9225    48.1575 CH2           1 RES     
    3893 CH2         17.0174    11.6239    48.8112 CH2           1 RES     
    3894 CH2         17.2158    11.3610    50.3155 CH2           1 RES     
    3895 CH2         15.8538    11.0625    50.9693 CH2           1 RES     
    3896 CH2         16.0522    10.7996    52.4736 CH2           1 RES     
    3897 CH2         14.6902    10.5010    53.1273 CH2           1 RES     
    3898 CH2         14.8886    10.2381    54.6317 CH2           1 RES     
    3899 CH2         13.5266     9.9396    55.2854 CH2           1 RES     
    3900 CH2         13.7250     9.6766    56.7898 CH2           1 RES     
    3901 CH2         12.3630     9.3781    57.4435 CH2           1 RES     
    3902 CH2         12.5614     9.1152    58.9478 CH2           1 RES     
    3903 CH2         11.1993     8.8167    59.6016 CH2           1 RES     
    3904 CH3         11.3887     8.5657    61.0375 CH3           1 RES     
    3905 CH3          4.4194    17.0293    50.3496 CH3           1 RES     
    3906 CH2          8.7799    16.0068    37.2936 CH2           1 RES     
    3907 CH2          7.6345    16.3317    38.2705 CH2           1 RES     
    3908 CH2          8.1265    16.1493    39.7184 CH2           1 RES     
    3909 CH2          6.9811    16.4742    40.6952 CH2           1 RES     
    3910 CH2          7.4730    16.2918    42.1431 CH2           1 RES     
    3911 CH2          6.3277    16.6166    43.1199 CH2           1 RES     
    3912 CH2          6.8196    16.4343    44.5678 CH2           1 RES     
    3913 CH2          5.6742    16.7591    45.5446 CH2           1 RES     
    3914 CH2          6.1662    16.5768    46.9925 CH2           1 RES     
    3915 CH2          5.0208    16.9016    47.9693 CH2           1 RES     
    3916 CH2          5.5127    16.7192    49.4172 CH2           1 RES     
    3917 OA           8.3183    16.1779    35.9351 OA            1 RES     
    3918 H            7.9587    15.3395    35.6361 H             1 RES     
    3919 CH3         32.7358    28.9111    50.3496 CH3           1 RES     
    3920 CH2         36.7632    26.9517    37.2936 CH2           1 RES     
    3921 CH2         35.7177    27.5213    38.2705 CH2           1 RES     
    3922 CH2         36.1573    27.2349    39.7184 CH2           1 RES     
    3923 CH2         35.1118    27.8044    40.6952 CH2           1 RES     
    3924 CH2         35.5514    27.5180    42.1431 CH2           1 RES     
    3925 CH2         34.5059    28.0875    43.1199 CH2           1 RES     
    3926 CH2         34.9455    27.8011    44.5678 CH2           1 RES     
    3927 CH2         33.9000    28.3707    45.5446 CH2           1 RES     
    3928 CH2         34.3396    28.0843    46.9925 CH2           1 RES     
    3929 CH2         33.2942    28.6538    47.9693 CH2           1 RES     
    3930 CH2         33.7337    28.3674    49.4172 CH2           1 RES     
    3931 OA          36.3507    27.2205    35.9351 OA            1 RES     
    3932 H           35.8150    26.4821    35.6361 H             1 RES     
    3933 CH3          4.0719     3.6728    50.3496 CH3           1 RES     
    3934 CH2          8.2804     5.2051    37.2936 CH2           1 RES     
    3935 CH2          7.1442     4.8497    38.2705 CH2           1 RES     
    3936 CH2          7.6557     4.9665    39.7184 CH2           1 RES     
    3937 CH2          6.5194     4.6111    40.6952 CH2           1 RES     
    3938 CH2          7.0309     4.7279    42.1431 CH2           1 RES     
    3939 CH2          5.8946     4.3725    43.1199 CH2           1 RES     
    3940 CH2          6.4061     4.4893    44.5678 CH2           1 RES     
    3941 CH2          5.2698     4.1339    45.5446 CH2           1 RES     
    3942 CH2          5.7813     4.2507    46.9925 CH2           1 RES     
    3943 CH2          4.6451     3.8953    47.9693 CH2           1 RES     
    3944 CH2          5.1566     4.0121    49.4172 CH2           1 RES     
    3945 OA           7.8005     5.0955    35.9351 OA            1 RES     
    3946 H            7.9587     4.1970    35.6361 H             1 RES     
    3947 CH3          9.6764     9.0392    50.3496 CH3           1 RES     
    3948 CH2         13.7979    10.7919    37.2936 CH2           1 RES     
    3949 CH2         12.6820    10.3769    38.2705 CH2           1 RES     
    3950 CH2         13.1866    10.5206    39.7184 CH2           1 RES     
    3951 CH2         12.0708    10.1056    40.6952 CH2           1 RES     
    3952 CH2         12.5754    10.2493    42.1431 CH2           1 RES     
    3953 CH2         11.4595     9.8343    43.1199 CH2           1 RES     
    3954 CH2         11.9641     9.9780    44.5678 CH2           1 RES     
    3955 CH2         10.8482     9.5629    45.5446 CH2           1 RES     
    3956 CH2         11.3528     9.7066    46.9925 CH2           1 RES     
    3957 CH2         10.2369     9.2916    47.9693 CH2           1 RES     
    3958 CH2         10.7415     9.4353    49.4172 CH2           1 RES     
    3959 OA          13.3245    10.6571    35.9351 OA            1 RES     
    3960 H           13.5300     9.7683    35.6361 H             1 RES     
    3961 CH3         15.1981    42.8118    50.3496 CH3           1 RES     
    3962 CH2         19.4590    44.1917    37.2936 CH2           1 RES     
    3963 CH2         18.3107    43.8774    38.2705 CH2           1 RES     
    3964 CH2         18.8261    43.9757    39.7184 CH2           1 RES     
    3965 CH2         17.6777    43.6614    40.6952 CH2           1 RES     
    3966 CH2         18.1931    43.7597    42.1431 CH2           1 RES     
    3967 CH2         17.0448    43.4454    43.1199 CH2           1 RES     
    3968 CH2         17.5601    43.5437    44.5678 CH2           1 RES     
    3969 CH2         16.4118    43.2294    45.5446 CH2           1 RES     
    3970 CH2         16.9272    43.3278    46.9925 CH2           1 RES     
    3971 CH2         15.7789    43.0135    47.9693 CH2           1 RES     
    3972 CH2         16.2942    43.1118    49.4172 CH2           1 RES     
    3973 OA          18.9754    44.0994    35.9351 OA            1 RES     
    3974 H           19.1012    43.1958    35.6361 H             1 RES     
    3975 CH3         32.2895    17.0578    50.3496 CH3           1 RES     
    3976 CH2         36.6416    16.0002    37.2936 CH2           1 RES     
    3977 CH2         35.4989    16.3343    38.2705 CH2           1 RES     
    3978 CH2         35.9893    16.1479    39.7184 CH2           1 RES     
    3979 CH2         34.8466    16.4820    40.6952 CH2           1 RES     
    3980 CH2         35.3370    16.2957    42.1431 CH2           1 RES     
    3981 CH2         34.1943    16.6298    43.1199 CH2           1 RES     
    3982 CH2         34.6848    16.4434    44.5678 CH2           1 RES     
    3983 CH2         33.5421    16.7775    45.5446 CH2           1 RES     
    3984 CH2         34.0325    16.5912    46.9925 CH2           1 RES     
    3985 CH2         32.8898    16.9253    47.9693 CH2           1 RES     
    3986 CH2         33.3803    16.7389    49.4172 CH2           1 RES     
    3987 OA          36.1814    16.1750    35.9351 OA            1 RES     
    3988 H           35.8150    15.3395    35.6361 H             1 RES     
    3989 CH3         21.5761    28.8892    50.3496 CH3           1 RES     
    3990 CH2         25.6173    26.9584    37.2936 CH2           1 RES     
    3991 CH2         24.5678    27.5206    38.2705 CH2           1 RES     
    3992 CH2         25.0094    27.2373    39.7184 CH2           1 RES     
    3993 CH2         23.9600    27.7994    40.6952 CH2           1 RES     
    3994 CH2         24.4016    27.5161    42.1431 CH2           1 RES     
    3995 CH2         23.3521    28.0782    43.1199 CH2           1 RES     
    3996 CH2         23.7937    27.7949    44.5678 CH2           1 RES     
    3997 CH2         22.7442    28.3571    45.5446 CH2           1 RES     
    3998 CH2         23.1858    28.0738    46.9925 CH2           1 RES     
    3999 CH2         22.1363    28.6359    47.9693 CH2           1 RES     
    4000 CH2         22.5779    28.3526    49.4172 CH2           1 RES     
    4001 OA          25.2030    27.2242    35.9351 OA            1 RES     
    4002 H           24.6725    26.4821    35.6361 H             1 RES     
    4003 CH3         37.8162    16.9631    50.3496 CH3           1 RES     
    4004 CH2         42.1949    16.0220    37.2936 CH2           1 RES     
    4005 CH2         41.0437    16.3255    38.2705 CH2           1 RES     
    4006 CH2         41.5389    16.1523    39.7184 CH2           1 RES     
    4007 CH2         40.3877    16.4558    40.6952 CH2           1 RES     
    4008 CH2         40.8830    16.2826    42.1431 CH2           1 RES     
    4009 CH2         39.7317    16.5860    43.1199 CH2           1 RES     
    4010 CH2         40.2270    16.4129    44.5678 CH2           1 RES     
    4011 CH2         39.0758    16.7163    45.5446 CH2           1 RES     
    4012 CH2         39.5710    16.5432    46.9925 CH2           1 RES     
    4013 CH2         38.4198    16.8466    47.9693 CH2           1 RES     
    4014 CH2         38.9150    16.6735    49.4172 CH2           1 RES     
    4015 OA          41.7302    16.1845    35.9351 OA            1 RES     
    4016 H           41.3863    15.3395    35.6361 H             1 RES     
    4017 CH3         43.7595     6.4673    50.3496 CH3           1 RES     
    4018 CH2         47.8808     4.7140    37.2936 CH2           1 RES     
    4019 CH2         46.8078     5.2300    38.2705 CH2           1 RES     
    4020 CH2         47.2613     4.9662    39.7184 CH2           1 RES     
    4021 CH2         46.1884     5.4821    40.6952 CH2           1 RES     
    4022 CH2         46.6419     5.2183    42.1431 CH2           1 RES     
    4023 CH2         45.5690     5.7343    43.1199 CH2           1 RES     
    4024 CH2         46.0225     5.4705    44.5678 CH2           1 RES     
    4025 CH2         44.9496     5.9864    45.5446 CH2           1 RES     
    4026 CH2         45.4030     5.7226    46.9925 CH2           1 RES     
    4027 CH2         44.3301     6.2386    47.9693 CH2           1 RES     
    4028 CH2         44.7836     5.9748    49.4172 CH2           1 RES     
    4029 OA          47.4553     4.9616    35.9351 OA            1 RES     
    4030 H           46.9575     4.1970    35.6361 H             1 RES     
    4031 CH3          9.6349    37.1666    50.3496 CH3           1 RES     
    4032 CH2         13.8688    38.6270    37.2936 CH2           1 RES     
    4033 CH2         12.7267    38.2910    38.2705 CH2           1 RES     
    4034 CH2         13.2401    38.3991    39.7184 CH2           1 RES     
    4035 CH2         12.0979    38.0630    40.6952 CH2           1 RES     
    4036 CH2         12.6113    38.1711    42.1431 CH2           1 RES     
    4037 CH2         11.4692    37.8351    43.1199 CH2           1 RES     
    4038 CH2         11.9826    37.9432    44.5678 CH2           1 RES     
    4039 CH2         10.8404    37.6072    45.5446 CH2           1 RES     
    4040 CH2         11.3538    37.7152    46.9925 CH2           1 RES     
    4041 CH2         10.2117    37.3792    47.9693 CH2           1 RES     
    4042 CH2         10.7251    37.4873    49.4172 CH2           1 RES     
    4043 OA          13.3871    38.5256    35.9351 OA            1 RES     
    4044 H           13.5300    37.6246    35.6361 H             1 RES     
    4045 CH3         43.1124    21.6832    50.3496 CH3           1 RES     
    4046 CH2         47.5905    21.7587    37.2936 CH2           1 RES     
    4047 CH2         46.4005    21.7935    38.2705 CH2           1 RES     
    4048 CH2         46.9221    21.7370    39.7184 CH2           1 RES     
    4049 CH2         45.7320    21.7717    40.6952 CH2           1 RES     
    4050 CH2         46.2536    21.7153    42.1431 CH2           1 RES     
    4051 CH2         45.0636    21.7500    43.1199 CH2           1 RES     
    4052 CH2         45.5852    21.6935    44.5678 CH2           1 RES     
    4053 CH2         44.3952    21.7282    45.5446 CH2           1 RES     
    4054 CH2         44.9168    21.6718    46.9925 CH2           1 RES     
    4055 CH2         43.7267    21.7065    47.9693 CH2           1 RES     
    4056 CH2         44.2483    21.6500    49.4172 CH2           1 RES     
    4057 OA          47.1011    21.8117    35.9351 OA            1 RES     
    4058 H           46.9575    20.9108    35.6361 H             1 RES     
    4059 CH3         37.5041    25.9250    50.3496 CH3           1 RES     
    4060 CH2         41.6995    27.4928    37.2936 CH2           1 RES     
    4061 CH2         40.5663    27.1278    38.2705 CH2           1 RES     
    4062 CH2         41.0767    27.2489    39.7184 CH2           1 RES     
    4063 CH2         39.9435    26.8839    40.6952 CH2           1 RES     
    4064 CH2         40.4540    27.0050    42.1431 CH2           1 RES     
    4065 CH2         39.3208    26.6401    43.1199 CH2           1 RES     
    4066 CH2         39.8313    26.7612    44.5678 CH2           1 RES     
    4067 CH2         38.6980    26.3962    45.5446 CH2           1 RES     
    4068 CH2         39.2085    26.5173    46.9925 CH2           1 RES     
    4069 CH2         38.0753    26.1523    47.9693 CH2           1 RES     
    4070 CH2         38.5858    26.2734    49.4172 CH2           1 RES     
    4071 OA          41.2205    27.3791    35.9351 OA            1 RES     
    4072 H           41.3863    26.4821    35.6361 H             1 RES     
    4073 CH3         10.4712    34.5080    50.3496 CH3           1 RES     
    4074 CH2         14.4821    32.5150    37.2936 CH2           1 RES     
    4075 CH2         13.4414    33.0933    38.2705 CH2           1 RES     
    4076 CH2         13.8785    32.8032    39.7184 CH2           1 RES     
    4077 CH2         12.8379    33.3815    40.6952 CH2           1 RES     
    4078 CH2         13.2750    33.0914    42.1431 CH2           1 RES     
    4079 CH2         12.2344    33.6697    43.1199 CH2           1 RES     
    4080 CH2         12.6715    33.3796    44.5678 CH2           1 RES     
    4081 CH2         11.6309    33.9579    45.5446 CH2           1 RES     
    4082 CH2         12.0680    33.6678    46.9925 CH2           1 RES     
    4083 CH2         11.0274    34.2461    47.9693 CH2           1 RES     
    4084 CH2         11.4645    33.9560    49.4172 CH2           1 RES     
    4085 OA          14.0719    32.7872    35.9351 OA            1 RES     
    4086 H           13.5300    32.0533    35.6361 H             1 RES     
    4087 CH3          4.0900    10.4124    50.3496 CH3           1 RES     
    4088 CH2          8.5631    10.6368    37.2936 CH2           1 RES     
    4089 CH2          7.3726    10.6319    38.2705 CH2           1 RES     
    4090 CH2          7.8958    10.5928    39.7184 CH2           1 RES     
    4091 CH2          6.7053    10.5880    40.6952 CH2           1 RES     
    4092 CH2          7.2284    10.5489    42.1431 CH2           1 RES     
    4093 CH2          6.0379    10.5440    43.1199 CH2           1 RES     
    4094 CH2          6.5611    10.5050    44.5678 CH2           1 RES     
    4095 CH2          5.3706    10.5001    45.5446 CH2           1 RES     
    4096 CH2          5.8938    10.4610    46.9925 CH2           1 RES     
    4097 CH2          4.7032    10.4561    47.9693 CH2           1 RES     
    4098 CH2          5.2264    10.4171    49.4172 CH2           1 RES     
    4099 OA           8.0722    10.6735    35.9351 OA            1 RES     
    4100 H            7.9587     9.7683    35.6361 H             1 RES     
    4101 CH3         20.7735    14.9154    50.3496 CH3           1 RES     
    4102 CH2         25.0200    16.3390    37.2936 CH2           1 RES     
    4103 CH2         23.8750    16.0129    38.2705 CH2           1 RES     
    4104 CH2         24.3893    16.1165    39.7184 CH2           1 RES     
    4105 CH2         23.2443    15.7904    40.6952 CH2           1 RES     
    4106 CH2         23.7586    15.8940    42.1431 CH2           1 RES     
    4107 CH2         22.6136    15.5680    43.1199 CH2           1 RES     
    4108 CH2         23.1279    15.6716    44.5678 CH2           1 RES     
    4109 CH2         21.9829    15.3455    45.5446 CH2           1 RES     
    4110 CH2         22.4972    15.4491    46.9925 CH2           1 RES     
    4111 CH2         21.3522    15.1230    47.9693 CH2           1 RES     
    4112 CH2         21.8665    15.2267    49.4172 CH2           1 RES     
    4113 OA          24.5374    16.2418    35.9351 OA            1 RES     
    4114 H           24.6725    15.3395    35.6361 H             1 RES     
    4115 CH3         10.1144    28.4096    50.3496 CH3           1 RES     
    4116 CH2         14.3948    27.0917    37.2936 CH2           1 RES     
    4117 CH2         13.2743    27.4940    38.2705 CH2           1 RES     
    4118 CH2         13.7527    27.2785    39.7184 CH2           1 RES     
    4119 CH2         12.6322    27.6808    40.6952 CH2           1 RES     
    4120 CH2         13.1105    27.4653    42.1431 CH2           1 RES     
    4121 CH2         11.9900    27.8676    43.1199 CH2           1 RES     
    4122 CH2         12.4683    27.6520    44.5678 CH2           1 RES     
    4123 CH2         11.3478    28.0544    45.5446 CH2           1 RES     
    4124 CH2         11.8261    27.8388    46.9925 CH2           1 RES     
    4125 CH2         10.7056    28.2411    47.9693 CH2           1 RES     
    4126 CH2         11.1840    28.0256    49.4172 CH2           1 RES     
    4127 OA          13.9460    27.2939    35.9351 OA            1 RES     
    4128 H           13.5300    26.4821    35.6361 H             1 RES     
    4129 CH3         26.3811     9.0890    50.3496 CH3           1 RES     
    4130 CH2         30.5249    10.7884    37.2936 CH2           1 RES     
    4131 CH2         29.4038    10.3878    38.2705 CH2           1 RES     
    4132 CH2         29.9102    10.5250    39.7184 CH2           1 RES     
    4133 CH2         28.7890    10.1244    40.6952 CH2           1 RES     
    4134 CH2         29.2954    10.2616    42.1431 CH2           1 RES     
    4135 CH2         28.1743     9.8610    43.1199 CH2           1 RES     
    4136 CH2         28.6807     9.9982    44.5678 CH2           1 RES     
    4137 CH2         27.5596     9.5976    45.5446 CH2           1 RES     
    4138 CH2         28.0660     9.7348    46.9925 CH2           1 RES     
    4139 CH2         26.9448     9.3342    47.9693 CH2           1 RES     
    4140 CH2         27.4512     9.4714    49.4172 CH2           1 RES     
    4141 OA          30.0497    10.6597    35.9351 OA            1 RES     
    4142 H           30.2438     9.7683    35.6361 H             1 RES     
    4143 CH3         27.0049    34.2650    50.3496 CH3           1 RES     
    4144 CH2         31.1574    32.5870    37.2936 CH2           1 RES     
    4145 CH2         30.0753    33.0834    38.2705 CH2           1 RES     
    4146 CH2         30.5335    32.8279    39.7184 CH2           1 RES     
    4147 CH2         29.4514    33.3242    40.6952 CH2           1 RES     
    4148 CH2         29.9096    33.0687    42.1431 CH2           1 RES     
    4149 CH2         28.8275    33.5651    43.1199 CH2           1 RES     
    4150 CH2         29.2857    33.3095    44.5678 CH2           1 RES     
    4151 CH2         28.2035    33.8059    45.5446 CH2           1 RES     
    4152 CH2         28.6618    33.5504    46.9925 CH2           1 RES     
    4153 CH2         27.5796    34.0467    47.9693 CH2           1 RES     
    4154 CH2         28.0378    33.7912    49.4172 CH2           1 RES     
    4155 OA          30.7275    32.8268    35.9351 OA            1 RES     
    4156 H           30.2438    32.0533    35.6361 H             1 RES     
    4157 CH3         10.6530    45.8613    50.3496 CH3           1 RES     
    4158 CH2         14.5124    43.5889    37.2936 CH2           1 RES     
    4159 CH2         13.5154    44.2395    38.2705 CH2           1 RES     
    4160 CH2         13.9309    43.9191    39.7184 CH2           1 RES     
    4161 CH2         12.9338    44.5698    40.6952 CH2           1 RES     
    4162 CH2         13.3493    44.2494    42.1431 CH2           1 RES     
    4163 CH2         12.3523    44.9000    43.1199 CH2           1 RES     
    4164 CH2         12.7678    44.5797    44.5678 CH2           1 RES     
    4165 CH2         11.7707    45.2303    45.5446 CH2           1 RES     
    4166 CH2         12.1862    44.9100    46.9925 CH2           1 RES     
    4167 CH2         11.1892    45.5606    47.9693 CH2           1 RES     
    4168 CH2         11.6047    45.2402    49.4172 CH2           1 RES     
    4169 OA          14.1225    43.8895    35.9351 OA            1 RES     
    4170 H           13.5300    43.1958    35.6361 H             1 RES     
    4171 CH3         20.7840    20.3993    50.3496 CH3           1 RES     
    4172 CH2         24.9975    21.9178    37.2936 CH2           1 RES     
    4173 CH2         23.8601    21.5661    38.2705 CH2           1 RES     
    4174 CH2         24.3720    21.6812    39.7184 CH2           1 RES     
    4175 CH2         23.2345    21.3295    40.6952 CH2           1 RES     
    4176 CH2         23.7464    21.4447    42.1431 CH2           1 RES     
    4177 CH2         22.6090    21.0930    43.1199 CH2           1 RES     
    4178 CH2         23.1209    21.2081    44.5678 CH2           1 RES     
    4179 CH2         21.9834    20.8564    45.5446 CH2           1 RES     
    4180 CH2         22.4953    20.9716    46.9925 CH2           1 RES     
    4181 CH2         21.3579    20.6199    47.9693 CH2           1 RES     
    4182 CH2         21.8697    20.7350    49.4172 CH2           1 RES     
    4183 OA          24.5172    21.8098    35.9351 OA            1 RES     
    4184 H           24.6725    20.9108    35.6361 H             1 RES     
    4185 CH3         37.6793    22.1915    50.3496 CH3           1 RES     
    4186 CH2         42.1272    21.6663    37.2936 CH2           1 RES     
    4187 CH2         40.9525    21.8601    38.2705 CH2           1 RES     
    4188 CH2         41.4618    21.7343    39.7184 CH2           1 RES     
    4189 CH2         40.2872    21.9282    40.6952 CH2           1 RES     
    4190 CH2         40.7965    21.8023    42.1431 CH2           1 RES     
    4191 CH2         39.6219    21.9962    43.1199 CH2           1 RES     
    4192 CH2         40.1312    21.8704    44.5678 CH2           1 RES     
    4193 CH2         38.9566    22.0642    45.5446 CH2           1 RES     
    4194 CH2         39.4659    21.9384    46.9925 CH2           1 RES     
    4195 CH2         38.2912    22.1323    47.9693 CH2           1 RES     
    4196 CH2         38.8006    22.0064    49.4172 CH2           1 RES     
    4197 OA          41.6492    21.7843    35.9351 OA            1 RES     
    4198 H           41.3863    20.9108    35.6361 H             1 RES     
    4199 CH3         37.5103    43.7949    50.3496 CH3           1 RES     
    4200 CH2         41.9805    44.0713    37.2936 CH2           1 RES     
    4201 CH2         40.7901    44.0526    38.2705 CH2           1 RES     
    4202 CH2         41.3138    44.0196    39.7184 CH2           1 RES     
    4203 CH2         40.1234    44.0009    40.6952 CH2           1 RES     
    4204 CH2         40.6470    43.9679    42.1431 CH2           1 RES     
    4205 CH2         39.4566    43.9492    43.1199 CH2           1 RES     
    4206 CH2         39.9802    43.9162    44.5678 CH2           1 RES     
    4207 CH2         38.7898    43.8975    45.5446 CH2           1 RES     
    4208 CH2         39.3134    43.8645    46.9925 CH2           1 RES     
    4209 CH2         38.1230    43.8457    47.9693 CH2           1 RES     
    4210 CH2         38.6466    43.8128    49.4172 CH2           1 RES     
    4211 OA          41.4892    44.1023    35.9351 OA            1 RES     
    4212 H           41.3863    43.1958    35.6361 H             1 RES     
    4213 CH3          4.0855    38.2408    50.3496 CH3           1 RES     
    4214 CH2          8.5568    38.4974    37.2936 CH2           1 RES     
    4215 CH2          7.3664    38.4840    38.2705 CH2           1 RES     
    4216 CH2          7.8898    38.4487    39.7184 CH2           1 RES     
    4217 CH2          6.6994    38.4352    40.6952 CH2           1 RES     
    4218 CH2          7.2228    38.3999    42.1431 CH2           1 RES     
    4219 CH2          6.0324    38.3864    43.1199 CH2           1 RES     
    4220 CH2          6.5558    38.3511    44.5678 CH2           1 RES     
    4221 CH2          5.3654    38.3377    45.5446 CH2           1 RES     
    4222 CH2          5.8888    38.3024    46.9925 CH2           1 RES     
    4223 CH2          4.6984    38.2889    47.9693 CH2           1 RES     
    4224 CH2          5.2218    38.2536    49.4172 CH2           1 RES     
    4225 OA           8.0657    38.5306    35.9351 OA            1 RES     
    4226 H            7.9587    37.6246    35.6361 H             1 RES     
    4227 CH3          9.6417    21.4236    50.3496 CH3           1 RES     
    4228 CH2         14.1046    21.7993    37.2936 CH2           1 RES     
    4229 CH2         12.9150    21.7541    38.2705 CH2           1 RES     
    4230 CH2         13.4392    21.7328    39.7184 CH2           1 RES     
    4231 CH2         12.2495    21.6876    40.6952 CH2           1 RES     
    4232 CH2         12.7737    21.6663    42.1431 CH2           1 RES     
    4233 CH2         11.5840    21.6211    43.1199 CH2           1 RES     
    4234 CH2         12.1082    21.5997    44.5678 CH2           1 RES     
    4235 CH2         10.9185    21.5546    45.5446 CH2           1 RES     
    4236 CH2         11.4428    21.5332    46.9925 CH2           1 RES     
    4237 CH2         10.2531    21.4881    47.9693 CH2           1 RES     
    4238 CH2         10.7773    21.4667    49.4172 CH2           1 RES     
    4239 OA          13.6128    21.8193    35.9351 OA            1 RES     
    4240 H           13.5300    20.9108    35.6361 H             1 RES     
    4241 CH3         20.8579    44.1071    50.3496 CH3           1 RES     
    4242 CH2         25.3358    44.0203    37.2936 CH2           1 RES     
    4243 CH2         24.1478    44.0981    38.2705 CH2           1 RES     
    4244 CH2         24.6670    44.0228    39.7184 CH2           1 RES     
    4245 CH2         23.4790    44.1006    40.6952 CH2           1 RES     
    4246 CH2         23.9982    44.0253    42.1431 CH2           1 RES     
    4247 CH2         22.8102    44.1031    43.1199 CH2           1 RES     
    4248 CH2         23.3294    44.0278    44.5678 CH2           1 RES     
    4249 CH2         22.1414    44.1057    45.5446 CH2           1 RES     
    4250 CH2         22.6607    44.0303    46.9925 CH2           1 RES     
    4251 CH2         21.4727    44.1082    47.9693 CH2           1 RES     
    4252 CH2         21.9919    44.0328    49.4172 CH2           1 RES     
    4253 OA          24.8486    44.0910    35.9351 OA            1 RES     
    4254 H           24.6725    43.1958    35.6361 H             1 RES     
    4255 CH3          4.0928    32.7140    50.3496 CH3           1 RES     
    4256 CH2          8.5668    32.9192    37.2936 CH2           1 RES     
    4257 CH2          7.3763    32.9195    38.2705 CH2           1 RES     
    4258 CH2          7.8993    32.8782    39.7184 CH2           1 RES     
    4259 CH2          6.7088    32.8784    40.6952 CH2           1 RES     
    4260 CH2          7.2318    32.8371    42.1431 CH2           1 RES     
    4261 CH2          6.0413    32.8373    43.1199 CH2           1 RES     
    4262 CH2          6.5643    32.7960    44.5678 CH2           1 RES     
    4263 CH2          5.3737    32.7962    45.5446 CH2           1 RES     
    4264 CH2          5.8968    32.7549    46.9925 CH2           1 RES     
    4265 CH2          4.7062    32.7551    47.9693 CH2           1 RES     
    4266 CH2          5.2292    32.7138    49.4172 CH2           1 RES     
    4267 OA           8.0761    32.9580    35.9351 OA            1 RES     
    4268 H            7.9587    32.0533    35.6361 H             1 RES     
    4269 CH3         15.5485    28.1433    50.3496 CH3           1 RES     
    4270 CH2         19.9170    27.1559    37.2936 CH2           1 RES     
    4271 CH2         18.7691    27.4716    38.2705 CH2           1 RES     
    4272 CH2         19.2625    27.2932    39.7184 CH2           1 RES     
    4273 CH2         18.1145    27.6088    40.6952 CH2           1 RES     
    4274 CH2         18.6079    27.4304    42.1431 CH2           1 RES     
    4275 CH2         17.4600    27.7460    43.1199 CH2           1 RES     
    4276 CH2         17.9534    27.5676    44.5678 CH2           1 RES     
    4277 CH2         16.8054    27.8832    45.5446 CH2           1 RES     
    4278 CH2         17.2988    27.7048    46.9925 CH2           1 RES     
    4279 CH2         16.1509    28.0205    47.9693 CH2           1 RES     
    4280 CH2         16.6443    27.8421    49.4172 CH2           1 RES     
    4281 OA          19.4541    27.3233    35.9351 OA            1 RES     
    4282 H           19.1012    26.4821    35.6361 H             1 RES     
    4283 CH3         26.6017    39.0798    50.3496 CH3           1 RES     
    4284 CH2         31.0196    38.3440    37.2936 CH2           1 RES     
    4285 CH2         29.8555    38.5934    38.2705 CH2           1 RES     
    4286 CH2         30.3583    38.4436    39.7184 CH2           1 RES     
    4287 CH2         29.1942    38.6930    40.6952 CH2           1 RES     
    4288 CH2         29.6970    38.5431    42.1431 CH2           1 RES     
    4289 CH2         28.5328    38.7925    43.1199 CH2           1 RES     
    4290 CH2         29.0356    38.6426    44.5678 CH2           1 RES     
    4291 CH2         27.8715    38.8920    45.5446 CH2           1 RES     
    4292 CH2         28.3743    38.7422    46.9925 CH2           1 RES     
    4293 CH2         27.2102    38.9916    47.9693 CH2           1 RES     
    4294 CH2         27.7130    38.8417    49.4172 CH2           1 RES     
    4295 OA          30.5479    38.4847    35.9351 OA            1 RES     
    4296 H           30.2438    37.6246    35.6361 H             1 RES     
    4297 CH3         43.0837    27.0948    50.3496 CH3           1 RES     
    4298 CH2         47.5549    27.3554    37.2936 CH2           1 RES     
    4299 CH2         46.3644    27.3409    38.2705 CH2           1 RES     
    4300 CH2         46.8879    27.3061    39.7184 CH2           1 RES     
    4301 CH2         45.6975    27.2916    40.6952 CH2           1 RES     
    4302 CH2         46.2210    27.2567    42.1431 CH2           1 RES     
    4303 CH2         45.0305    27.2422    43.1199 CH2           1 RES     
    4304 CH2         45.5540    27.2074    44.5678 CH2           1 RES     
    4305 CH2         44.3636    27.1929    45.5446 CH2           1 RES     
    4306 CH2         44.8870    27.1580    46.9925 CH2           1 RES     
    4307 CH2         43.6966    27.1435    47.9693 CH2           1 RES     
    4308 CH2         44.2201    27.1087    49.4172 CH2           1 RES     
    4309 OA          47.0637    27.3881    35.9351 OA            1 RES     
    4310 H           46.9575    26.4821    35.6361 H             1 RES     
    4311 CH3         37.7479    11.2326    50.3496 CH3           1 RES     
    4312 CH2         42.1640    10.4858    37.2936 CH2           1 RES     
    4313 CH2         41.0005    10.7381    38.2705 CH2           1 RES     
    4314 CH2         41.5029    10.5870    39.7184 CH2           1 RES     
    4315 CH2         40.3394    10.8393    40.6952 CH2           1 RES     
    4316 CH2         40.8418    10.6882    42.1431 CH2           1 RES     
    4317 CH2         39.6783    10.9405    43.1199 CH2           1 RES     
    4318 CH2         40.1807    10.7894    44.5678 CH2           1 RES     
    4319 CH2         39.0172    11.0417    45.5446 CH2           1 RES     
    4320 CH2         39.5196    10.8906    46.9925 CH2           1 RES     
    4321 CH2         38.3561    11.1429    47.9693 CH2           1 RES     
    4322 CH2         38.8586    10.9918    49.4172 CH2           1 RES     
    4323 OA          41.6926    10.6276    35.9351 OA            1 RES     
    4324 H           41.3863     9.7683    35.6361 H             1 RES     
    4325 CH3         27.3617    45.8559    50.3496 CH3           1 RES     
    4326 CH2         31.2254    43.5907    37.2936 CH2           1 RES     
    4327 CH2         30.2272    44.2395    38.2705 CH2           1 RES     
    4328 CH2         30.6433    43.9199    39.7184 CH2           1 RES     
    4329 CH2         29.6450    44.5686    40.6952 CH2           1 RES     
    4330 CH2         30.0611    44.2491    42.1431 CH2           1 RES     
    4331 CH2         29.0629    44.8978    43.1199 CH2           1 RES     
    4332 CH2         29.4789    44.5783    44.5678 CH2           1 RES     
    4333 CH2         28.4807    45.2270    45.5446 CH2           1 RES     
    4334 CH2         28.8968    44.9074    46.9925 CH2           1 RES     
    4335 CH2         27.8985    45.5562    47.9693 CH2           1 RES     
    4336 CH2         28.3146    45.2366    49.4172 CH2           1 RES     
    4337 OA          30.8350    43.8906    35.9351 OA            1 RES     
    4338 H           30.2438    43.1958    35.6361 H             1 RES     
    4339 CH3         31.9196    21.3665    50.3496 CH3           1 RES     
    4340 CH2         36.3766    21.8076    37.2936 CH2           1 RES     
    4341 CH2         35.1877    21.7450    38.2705 CH2           1 RES     
    4342 CH2         35.7122    21.7313    39.7184 CH2           1 RES     
    4343 CH2         34.5233    21.6687    40.6952 CH2           1 RES     
    4344 CH2         35.0477    21.6551    42.1431 CH2           1 RES     
    4345 CH2         33.8589    21.5925    43.1199 CH2           1 RES     
    4346 CH2         34.3833    21.5788    44.5678 CH2           1 RES     
    4347 CH2         33.1944    21.5162    45.5446 CH2           1 RES     
    4348 CH2         33.7189    21.5025    46.9925 CH2           1 RES     
    4349 CH2         32.5300    21.4399    47.9693 CH2           1 RES     
    4350 CH2         33.0545    21.4263    49.4172 CH2           1 RES     
    4351 OA          35.8845    21.8204    35.9351 OA            1 RES     
    4352 H           35.8150    20.9108    35.6361 H             1 RES     
    4353 OW          20.3384    30.1660    90.5770 OW            1 RES     
    4354 HW1         20.7634    30.9060    91.0960 HW1           1 RES     
    4355 HW2         19.3464    30.2910    90.5660 HW2           1 RES     
    4356 OW          15.8264     8.8050   115.8600 OW            1 RES     
    4357 HW1         16.5394     8.3330   115.3430 HW1           1 RES     
    4358 HW2         15.9354     8.6100   116.8350 HW2           1 RES     
    4359 OW          15.4794    20.8690   112.2090 OW            1 RES     
    4360 HW1         15.2264    20.5440   113.1200 HW1           1 RES     
    4361 HW2         15.6124    21.8600   112.2330 HW2           1 RES     
    4362 OW           5.0974    17.0710   102.2720 OW            1 RES     
    4363 HW1          5.5904    17.9390   102.2600 HW1           1 RES     
    4364 HW2          5.7334    16.3270   102.4770 HW2           1 RES     
    4365 OW          11.4294    37.5460   100.6850 OW            1 RES     
    4366 HW1         11.9374    38.3940   100.8300 HW1           1 RES     
    4367 HW2         10.6964    37.7050   100.0230 HW2           1 RES     
    4368 OW          20.7504    35.8590   112.9780 OW            1 RES     
    4369 HW1         20.1224    35.4040   113.6090 HW1           1 RES     
    4370 HW2         20.5284    35.5960   112.0390 HW2           1 RES     
    4371 OW          56.1064     6.2250   110.9340 OW            1 RES     
    4372 HW1         56.4924     5.7330   110.1550 HW1           1 RES     
    4373 HW2         56.5504     7.1180   111.0180 HW2           1 RES     
    4374 OW          40.2894    49.0630    93.9430 OW            1 RES     
    4375 HW1         40.8624    48.2500    93.8460 HW1           1 RES     
    4376 HW2         39.5024    48.9920    93.3300 HW2           1 RES     
    4377 OW          26.9774     8.3800   112.7380 OW            1 RES     
    4378 HW1         27.8474     7.8980   112.6390 HW1           1 RES     
    4379 HW2         27.1504     9.3450   112.9340 HW2           1 RES     
    4380 OW           1.6004    45.8340   103.9520 OW            1 RES     
    4381 HW1          1.2074    45.2850   103.2150 HW1           1 RES     
    4382 HW2          1.0524    45.7220   104.7810 HW2           1 RES     
    4383 OW          18.4124    26.5260   102.0590 OW            1 RES     
    4384 HW1         19.2034    25.9160   102.0510 HW1           1 RES     
    4385 HW2         17.6014    26.0260   101.7560 HW2           1 RES     
    4386 OW          52.8274    10.3660   111.3760 OW            1 RES     
    4387 HW1         52.3974    11.2520   111.5440 HW1           1 RES     
    4388 HW2         53.5754    10.2290   112.0260 HW2           1 RES     
    4389 OW          12.9684    28.5200   111.2520 OW            1 RES     
    4390 HW1         13.4244    27.6700   111.5150 HW1           1 RES     
    4391 HW2         12.8294    28.5320   110.2620 HW2           1 RES     
    4392 OW          31.4414     5.6640    97.4950 OW            1 RES     
    4393 HW1         31.5654     4.6720    97.5000 HW1           1 RES     
    4394 HW2         32.2554     6.0990    97.1090 HW2           1 RES     
    4395 OW          45.3444    44.5820   102.9040 OW            1 RES     
    4396 HW1         46.3314    44.6980   102.8000 HW1           1 RES     
    4397 HW2         44.8704    45.3620   102.4940 HW2           1 RES     
    4398 OW          45.5024    45.2460    99.8170 OW            1 RES     
    4399 HW1         45.9664    44.3610    99.8040 HW1           1 RES     
    4400 HW2         46.1824    45.9790    99.8480 HW2           1 RES     
    4401 OW          48.5504    36.8070    99.1350 OW            1 RES     
    4402 HW1         49.4734    37.1920    99.1260 HW1           1 RES     
    4403 HW2         48.6054    35.8090    99.1630 HW2           1 RES     
    4404 OW          24.8094    24.9120    90.2810 OW            1 RES     
    4405 HW1         24.0274    25.4810    90.5330 HW1           1 RES     
    4406 HW2         24.5874    23.9500    90.4400 HW2           1 RES     
    4407 OW          14.9604     0.7720   116.9800 OW            1 RES     
    4408 HW1         14.7614     1.7080   117.2670 HW1           1 RES     
    4409 HW2         15.9504     0.6230   116.9910 HW2           1 RES     
    4410 OW          23.4974    39.2410   111.4940 OW            1 RES     
    4411 HW1         22.6554    38.9640   111.9550 HW1           1 RES     
    4412 HW2         23.4744    38.9350   110.5420 HW2           1 RES     
    4413 OW          16.7514    35.4260    95.0450 OW            1 RES     
    4414 HW1         16.7294    34.4270    95.0650 HW1           1 RES     
    4415 HW2         17.7004    35.7390    95.0700 HW2           1 RES     
    4416 OW          25.9804    46.5080   102.9060 OW            1 RES     
    4417 HW1         25.7254    47.3440   102.4220 HW1           1 RES     
    4418 HW2         26.8934    46.2200   102.6170 HW2           1 RES     
    4419 OW          43.4914    47.8330    98.5640 OW            1 RES     
    4420 HW1         42.7694    47.9470    99.2450 HW1           1 RES     
    4421 HW2         43.0954    47.8710    97.6460 HW2           1 RES     
    4422 OW          27.5504    35.6630    93.7370 OW            1 RES     
    4423 HW1         27.4854    34.7150    93.4270 HW1           1 RES     
    4424 HW2         28.0424    36.2040    93.0540 HW2           1 RES     
    4425 OW          42.4154    28.2090   117.4350 OW            1 RES     
    4426 HW1         42.5944    27.9870   116.4770 HW1           1 RES     
    4427 HW2         41.4424    28.4100   117.5550 HW2           1 RES     
    4428 OW          17.0164    37.4760   103.7370 OW            1 RES     
    4429 HW1         16.7734    37.6540   102.7840 HW1           1 RES     
    4430 HW2         17.3584    38.3170   104.1570 HW2           1 RES     
    4431 OW          23.0684     0.0000    99.9320 OW            1 RES     
    4432 HW1         23.8104     0.3240   100.5180 HW1           1 RES     
    4433 HW2         22.8634     0.6920    99.2390 HW2           1 RES     
    4434 OW          38.6464     8.1590   115.7020 OW            1 RES     
    4435 HW1         38.7564     7.1760   115.8450 HW1           1 RES     
    4436 HW2         37.6754     8.3750   115.5990 HW2           1 RES     
    4437 OW           3.5024    47.9480   109.3190 OW            1 RES     
    4438 HW1          4.4054    48.2920   109.5740 HW1           1 RES     
    4439 HW2          3.3224    47.0910   109.8020 HW2           1 RES     
    4440 OW          35.9064    11.3420   107.3600 OW            1 RES     
    4441 HW1         36.3814    10.4910   107.1350 HW1           1 RES     
    4442 HW2         36.5734    12.0340   107.6360 HW2           1 RES     
    4443 OW          11.9654    37.4640   108.6700 OW            1 RES     
    4444 HW1         11.1244    37.9760   108.8380 HW1           1 RES     
    4445 HW2         11.7974    36.4890   108.8140 HW2           1 RES     
    4446 OW          17.4324     2.2610    91.8840 OW            1 RES     
    4447 HW1         16.7394     1.5460    91.7970 HW1           1 RES     
    4448 HW2         17.0494     3.0370    92.3850 HW2           1 RES     
    4449 OW          31.8784     9.7590    92.2980 OW            1 RES     
    4450 HW1         32.4684     9.3060    92.9660 HW1           1 RES     
    4451 HW2         31.1734    10.2830    92.7770 HW2           1 RES     
    4452 OW          43.1554    23.6790   114.3400 OW            1 RES     
    4453 HW1         42.4144    24.3370   114.2130 HW1           1 RES     
    4454 HW2         43.9874    24.1620   114.6120 HW2           1 RES     
    4455 OW          47.7244    31.0320    91.1290 OW            1 RES     
    4456 HW1         46.7734    30.7240    91.1520 HW1           1 RES     
    4457 HW2         47.8174    31.8690    91.6690 HW2           1 RES     
    4458 OW          21.5594    20.4280    98.2310 OW            1 RES     
    4459 HW1         20.9414    19.6520    98.1120 HW1           1 RES     
    4460 HW2         22.4914    20.1530    97.9930 HW2           1 RES     
    4461 OW          39.5674     6.9690   106.7110 OW            1 RES     
    4462 HW1         39.4934     7.0280   105.7160 HW1           1 RES     
    4463 HW2         38.6514     6.9600   107.1140 HW2           1 RES     
    4464 OW          44.5894     8.0220    92.1860 OW            1 RES     
    4465 HW1         44.8124     8.5080    93.0300 HW1           1 RES     
    4466 HW2         43.8554     7.3650    92.3620 HW2           1 RES     
    4467 OW          18.3374    46.3370   106.1080 OW            1 RES     
    4468 HW1         18.9274    45.5510   106.2880 HW1           1 RES     
    4469 HW2         17.3894    46.0320   106.0250 HW2           1 RES     
    4470 OW           4.3884    32.8530   109.0020 OW            1 RES     
    4471 HW1          5.0714    32.6110   108.3140 HW1           1 RES     
    4472 HW2          4.3124    32.1150   109.6720 HW2           1 RES     
    4473 OW           7.9514    18.0380   105.3350 OW            1 RES     
    4474 HW1          7.8404    17.4190   106.1110 HW1           1 RES     
    4475 HW2          8.8374    17.8730   104.9010 HW2           1 RES     
    4476 OW           4.4834    18.4220   115.7250 OW            1 RES     
    4477 HW1          3.8944    18.9020   115.0760 HW1           1 RES     
    4478 HW2          4.5174    17.4510   115.4890 HW2           1 RES     
    4479 OW          34.9834     3.4510    90.5040 OW            1 RES     
    4480 HW1         34.7044     2.6760    91.0690 HW1           1 RES     
    4481 HW2         34.4354     4.2530    90.7430 HW2           1 RES     
    4482 OW          24.6764    45.0150   110.9080 OW            1 RES     
    4483 HW1         25.2234    45.5350   111.5620 HW1           1 RES     
    4484 HW2         24.0214    45.6250   110.4610 HW2           1 RES     
    4485 OW           2.8464     5.1820   113.5300 OW            1 RES     
    4486 HW1          1.9124     5.2440   113.8790 HW1           1 RES     
    4487 HW2          3.2734     4.3430   113.8670 HW2           1 RES     
    4488 OW          42.9814     9.4130   114.6150 OW            1 RES     
    4489 HW1         42.2494     9.3100   113.9420 HW1           1 RES     
    4490 HW2         42.5914     9.7010   115.4900 HW2           1 RES     
    4491 OW          52.4764    33.4220   116.5170 OW            1 RES     
    4492 HW1         51.5974    33.5040   116.0490 HW1           1 RES     
    4493 HW2         52.9004    32.5470   116.2810 HW2           1 RES     
    4494 OW          16.4954    44.0320   116.6510 OW            1 RES     
    4495 HW1         16.2804    43.6930   117.5660 HW1           1 RES     
    4496 HW2         16.9574    43.3150   116.1290 HW2           1 RES     
    4497 OW          41.1384     0.6580    98.6970 OW            1 RES     
    4498 HW1         41.6324     1.0920    99.4500 HW1           1 RES     
    4499 HW2         41.0284     1.3130    97.9490 HW2           1 RES     
    4500 OW          21.1704    35.5490   115.9370 OW            1 RES     
    4501 HW1         20.5934    36.3280   115.6950 HW1           1 RES     
    4502 HW2         21.6994    35.2640   115.1370 HW2           1 RES     
    4503 OW          23.7124    24.5490   104.4810 OW            1 RES     
    4504 HW1         23.1294    23.7390   104.4340 HW1           1 RES     
    4505 HW2         24.6144    24.2910   104.8270 HW2           1 RES     
    4506 OW          35.4414    49.0690   104.8960 OW            1 RES     
    4507 HW1         34.7014    48.3980   104.9040 HW1           1 RES     
    4508 HW2         36.3224    48.5960   104.9260 HW2           1 RES     
    4509 OW          43.8904    36.2310    92.5450 OW            1 RES     
    4510 HW1         44.1974    35.4550    91.9950 HW1           1 RES     
    4511 HW2         44.6604    36.8460    92.7140 HW2           1 RES     
    4512 OW          33.6044    10.7910   117.0370 OW            1 RES     
    4513 HW1         33.4914     9.8130   117.2100 HW1           1 RES     
    4514 HW2         34.5544    11.0530   117.2070 HW2           1 RES     
    4515 OW          17.3714    33.3700   109.9400 OW            1 RES     
    4516 HW1         18.3114    33.7080   109.8980 HW1           1 RES     
    4517 HW2         16.7364    34.1360   109.8290 HW2           1 RES     
    4518 OW          28.0814    12.3520   104.4210 OW            1 RES     
    4519 HW1         28.2214    12.0460   105.3620 HW1           1 RES     
    4520 HW2         28.6584    11.8160   103.8050 HW2           1 RES     
    4521 OW          55.2684    46.2860    94.4240 OW            1 RES     
    4522 HW1         54.7534    45.4380    94.3030 HW1           1 RES     
    4523 HW2         56.2364    46.1190    94.2360 HW2           1 RES     
    4524 OW           8.2814    26.7730   114.2710 OW            1 RES     
    4525 HW1          7.5834    26.2930   114.8010 HW1           1 RES     
    4526 HW2          8.7524    26.1240   113.6740 HW2           1 RES     
    4527 OW          15.6344    13.0920    97.6860 OW            1 RES     
    4528 HW1         15.7134    13.7680    98.4180 HW1           1 RES     
    4529 HW2         15.3184    12.2230    98.0670 HW2           1 RES     
    4530 OW          30.1764    14.9650   106.8040 OW            1 RES     
    4531 HW1         30.2054    14.2750   106.0820 HW1           1 RES     
    4532 HW2         30.9914    14.8820   107.3780 HW2           1 RES     
    4533 OW          54.3664     8.3880   107.0990 OW            1 RES     
    4534 HW1         54.2724     9.3530   107.3410 HW1           1 RES     
    4535 HW2         55.3024     8.2090   106.7960 HW2           1 RES     
    4536 OW          11.1014    42.0510    99.7280 OW            1 RES     
    4537 HW1         10.5044    41.9010   100.5150 HW1           1 RES     
    4538 HW2         10.6834    42.7220    99.1150 HW2           1 RES     
    4539 OW          15.3284    41.3140   100.9790 OW            1 RES     
    4540 HW1         16.0944    40.8730   100.5130 HW1           1 RES     
    4541 HW2         14.5764    40.6620   101.0780 HW2           1 RES     
    4542 OW          47.8064    20.3040   116.6220 OW            1 RES     
    4543 HW1         48.1824    20.8670   117.3570 HW1           1 RES     
    4544 HW2         47.8144    19.3430   116.9010 HW2           1 RES     
    4545 OW           9.3464    32.5850    99.5020 OW            1 RES     
    4546 HW1          8.4484    32.1700    99.6480 HW1           1 RES     
    4547 HW2         10.0544    31.9910    99.8840 HW2           1 RES     
    4548 OW           8.9334    32.3440   106.7560 OW            1 RES     
    4549 HW1          9.3464    33.1890   106.4180 HW1           1 RES     
    4550 HW2          9.6384    31.6390   106.8430 HW2           1 RES     
    4551 OW          42.5284     3.5350   103.1240 OW            1 RES     
    4552 HW1         42.1034     4.4340   103.2230 HW1           1 RES     
    4553 HW2         43.5184     3.6420   103.0290 HW2           1 RES     
    4554 OW          35.6914    48.5610    99.8390 OW            1 RES     
    4555 HW1         35.3614    47.8740    99.1930 HW1           1 RES     
    4556 HW2         35.4434    48.2920   100.7700 HW2           1 RES     
    4557 OW          43.5414    11.6540    93.4930 OW            1 RES     
    4558 HW1         43.6414    11.9110    94.4540 HW1           1 RES     
    4559 HW2         43.1764    12.4290    92.9770 HW2           1 RES     
    4560 OW          11.8654     5.7230   117.2020 OW            1 RES     
    4561 HW1         12.5594     6.4320   117.3210 HW1           1 RES     
    4562 HW2         11.3714     5.8800   116.3470 HW2           1 RES     
    4563 OW          18.1214    17.9400    91.9490 OW            1 RES     
    4564 HW1         18.7214    18.7360    92.0240 HW1           1 RES     
    4565 HW2         17.2134    18.2340    91.6510 HW2           1 RES     
    4566 OW          36.0834    17.7690   101.8650 OW            1 RES     
    4567 HW1         36.8344    17.9630   101.2350 HW1           1 RES     
    4568 HW2         36.4514    17.5760   102.7750 HW2           1 RES     
    4569 OW          32.1754    14.8840   101.7350 OW            1 RES     
    4570 HW1         32.7954    15.1580   102.4710 HW1           1 RES     
    4571 HW2         31.4374    15.5540   101.6540 HW2           1 RES     
    4572 OW          21.8464    14.0330   111.6580 OW            1 RES     
    4573 HW1         21.2014    13.4440   111.1740 HW1           1 RES     
    4574 HW2         21.3424    14.6890   112.2210 HW2           1 RES     
    4575 OW          34.4254     3.6150   109.0560 OW            1 RES     
    4576 HW1         34.6624     3.4250   108.1030 HW1           1 RES     
    4577 HW2         33.9524     2.8250   109.4460 HW2           1 RES     
    4578 OW          44.2714    14.6630   117.1280 OW            1 RES     
    4579 HW1         43.8064    15.4400   116.7050 HW1           1 RES     
    4580 HW2         45.1334    14.9700   117.5330 HW2           1 RES     
    4581 OW          25.4144     3.4700    95.0330 OW            1 RES     
    4582 HW1         26.2694     2.9540    94.9870 HW1           1 RES     
    4583 HW2         25.6154     4.4490    95.0400 HW2           1 RES     
    4584 OW           0.8974    47.7200   113.9200 OW            1 RES     
    4585 HW1          1.7454    47.3170   114.2620 HW1           1 RES     
    4586 HW2          0.1154    47.2720   114.3550 HW2           1 RES     
    4587 OW          19.8044    25.2070    91.4120 OW            1 RES     
    4588 HW1         19.2034    25.9440    91.1040 HW1           1 RES     
    4589 HW2         20.7564    25.4510    91.2220 HW2           1 RES     
    4590 OW           5.5704    31.1590   114.6560 OW            1 RES     
    4591 HW1          4.6294    30.8220   114.6720 HW1           1 RES     
    4592 HW2          6.1564    30.4930   114.1940 HW2           1 RES     
    4593 OW          31.3664    23.8260    94.3530 OW            1 RES     
    4594 HW1         32.3404    23.6280    94.4560 HW1           1 RES     
    4595 HW2         31.1524    24.6920    94.8050 HW2           1 RES     
    4596 OW          12.5354    43.7140    99.8680 OW            1 RES     
    4597 HW1         13.2814    43.3170   100.4020 HW1           1 RES     
    4598 HW2         11.8194    44.0400   100.4860 HW2           1 RES     
    4599 OW          52.7604    35.5000   105.3570 OW            1 RES     
    4600 HW1         52.5544    34.5900   105.7140 HW1           1 RES     
    4601 HW2         51.9854    36.1090   105.5270 HW2           1 RES     
    4602 OW          24.2424    40.8660   113.8490 OW            1 RES     
    4603 HW1         24.9164    40.1470   113.6800 HW1           1 RES     
    4604 HW2         23.3304    40.5320   113.6080 HW2           1 RES     
    4605 OW           6.0734    35.4090   113.9310 OW            1 RES     
    4606 HW1          5.9864    35.8550   113.0410 HW1           1 RES     
    4607 HW2          5.8564    34.4370   113.8400 HW2           1 RES     
    4608 OW          27.6124    40.6390    97.3760 OW            1 RES     
    4609 HW1         27.7864    39.6640    97.5140 HW1           1 RES     
    4610 HW2         26.7724    40.7560    96.8460 HW2           1 RES     
    4611 OW           3.0814    11.8280   100.4010 OW            1 RES     
    4612 HW1          2.0914    11.6970   100.3890 HW1           1 RES     
    4613 HW2          3.5364    10.9370   100.4240 HW2           1 RES     
    4614 OW          30.8804    22.2720   105.8360 OW            1 RES     
    4615 HW1         30.1684    22.9420   106.0450 HW1           1 RES     
    4616 HW2         31.7474    22.7450   105.6800 HW2           1 RES     
    4617 OW          15.5374    43.5590   109.3380 OW            1 RES     
    4618 HW1         16.4464    43.8880   109.0870 HW1           1 RES     
    4619 HW2         15.3504    43.7900   110.2930 HW2           1 RES     
    4620 OW          37.6464    31.7530    96.2150 OW            1 RES     
    4621 HW1         37.6604    32.6730    95.8250 HW1           1 RES     
    4622 HW2         38.3934    31.2130    95.8250 HW2           1 RES     
    4623 OW          35.8084    32.5990   115.2550 OW            1 RES     
    4624 HW1         35.4954    31.7260   115.6280 HW1           1 RES     
    4625 HW2         35.0644    33.2660   115.2970 HW2           1 RES     
    4626 OW          11.9204    49.1760   106.2310 OW            1 RES     
    4627 HW1         10.9474    49.0510   106.4210 HW1           1 RES     
    4628 HW2         12.4524    48.9310   107.0420 HW2           1 RES     
    4629 OW          12.9044     2.2200    93.9900 OW            1 RES     
    4630 HW1         12.4844     1.3300    94.1670 HW1           1 RES     
    4631 HW2         13.8964     2.1140    93.9290 HW2           1 RES     
    4632 OW          40.1234    21.4810    92.0090 OW            1 RES     
    4633 HW1         40.0854    22.4790    92.0420 HW1           1 RES     
    4634 HW2         40.3644    21.1870    91.0840 HW2           1 RES     
    4635 OW          36.4024    10.2960   110.5360 OW            1 RES     
    4636 HW1         37.3464    10.5280   110.3030 HW1           1 RES     
    4637 HW2         36.3824     9.4180   111.0140 HW2           1 RES     
    4638 OW          45.4844    46.0870   109.9400 OW            1 RES     
    4639 HW1         46.3554    46.1660   110.4230 HW1           1 RES     
    4640 HW2         45.5284    46.6060   109.0860 HW2           1 RES     
    4641 OW           6.3684    42.7320   104.0110 OW            1 RES     
    4642 HW1          5.6104    42.4550   104.6010 HW1           1 RES     
    4643 HW2          6.2964    42.2600   103.1320 HW2           1 RES     
    4644 OW           1.0354     8.9850   102.8880 OW            1 RES     
    4645 HW1          0.7864     8.0500   103.1370 HW1           1 RES     
    4646 HW2          2.0284     9.0920   102.9410 HW2           1 RES     
    4647 OW          35.7394    18.6600   106.5680 OW            1 RES     
    4648 HW1         36.5814    18.7700   106.0420 HW1           1 RES     
    4649 HW2         35.5134    19.5220   107.0230 HW2           1 RES     
    4650 OW          43.0894    43.2150   107.7400 OW            1 RES     
    4651 HW1         43.5974    44.0760   107.7500 HW1           1 RES     
    4652 HW2         43.7074    42.4650   107.5030 HW2           1 RES     
    4653 OW          14.2814    38.3530    96.7570 OW            1 RES     
    4654 HW1         15.0904    37.8290    97.0200 HW1           1 RES     
    4655 HW2         13.5204    37.7260    96.5820 HW2           1 RES     
    4656 OW          50.5414    21.1260   111.8100 OW            1 RES     
    4657 HW1         51.1234    20.3140   111.7730 HW1           1 RES     
    4658 HW2         50.9314    21.8430   111.2310 HW2           1 RES     
    4659 OW          39.8414    14.4950   117.3560 OW            1 RES     
    4660 HW1         39.7164    15.2790   116.7500 HW1           1 RES     
    4661 HW2         40.7944    14.1940   117.3220 HW2           1 RES     
    4662 OW          26.7674    31.8270   101.9380 OW            1 RES     
    4663 HW1         26.0464    32.5130   101.8450 HW1           1 RES     
    4664 HW2         26.6974    31.3880   102.8340 HW2           1 RES     
    4665 OW          34.5454    29.8860    96.4130 OW            1 RES     
    4666 HW1         34.4264    29.0020    95.9630 HW1           1 RES     
    4667 HW2         34.8344    30.5670    95.7410 HW2           1 RES     
    4668 OW          28.6784    46.5950   110.3990 OW            1 RES     
    4669 HW1         29.3364    45.9410   110.7710 HW1           1 RES     
    4670 HW2         28.9974    47.5270   110.5730 HW2           1 RES     
    4671 OW           8.2744     0.3070   114.6770 OW            1 RES     
    4672 HW1          7.7294     1.1440   114.7230 HW1           1 RES     
    4673 HW2          9.2424     0.5440   114.5930 HW2           1 RES     
    4674 OW          14.5454    13.9030   116.2040 OW            1 RES     
    4675 HW1         13.9434    14.6390   116.5130 HW1           1 RES     
    4676 HW2         14.0854    13.0230   116.3220 HW2           1 RES     
    4677 OW          12.8914    17.3430    96.4730 OW            1 RES     
    4678 HW1         12.0614    17.1670    97.0000 HW1           1 RES     
    4679 HW2         13.2374    18.2560    96.6900 HW2           1 RES     
    4680 OW          41.7324    14.2100    93.2900 OW            1 RES     
    4681 HW1         41.0224    14.9130    93.2520 HW1           1 RES     
    4682 HW2         42.5624    14.5490    92.8450 HW2           1 RES     
    4683 OW          18.4914    35.8550   104.1440 OW            1 RES     
    4684 HW1         19.2134    35.6700   104.8100 HW1           1 RES     
    4685 HW2         17.6434    35.4140   104.4390 HW2           1 RES     
    4686 OW          24.3264    42.5760    98.1000 OW            1 RES     
    4687 HW1         24.9424    42.6890    97.3210 HW1           1 RES     
    4688 HW2         23.6294    43.2930    98.0800 HW2           1 RES     
    4689 OW          35.5064     3.0730   103.9150 OW            1 RES     
    4690 HW1         35.8304     3.4000   104.8020 HW1           1 RES     
    4691 HW2         35.8244     2.1360   103.7690 HW2           1 RES     
    4692 OW          45.2064    24.8680   106.1690 OW            1 RES     
    4693 HW1         45.9534    24.3090   106.5260 HW1           1 RES     
    4694 HW2         44.3784    24.3110   106.0950 HW2           1 RES     
    4695 OW          38.6654    38.5300   115.0690 OW            1 RES     
    4696 HW1         38.9344    37.9110   115.8050 HW1           1 RES     
    4697 HW2         39.0384    38.1990   114.2010 HW2           1 RES     
    4698 OW          23.4194    17.5590   108.5610 OW            1 RES     
    4699 HW1         23.1314    16.6070   108.4580 HW1           1 RES     
    4700 HW2         22.6774    18.1640   108.2710 HW2           1 RES     
    4701 OW          12.1754    15.4920    95.3580 OW            1 RES     
    4702 HW1         11.2154    15.2150    95.3550 HW1           1 RES     
    4703 HW2         12.7574    14.6780    95.3560 HW2           1 RES     
    4704 OW          34.4864    17.6670   114.6770 OW            1 RES     
    4705 HW1         33.6364    17.1480   114.5950 HW1           1 RES     
    4706 HW2         34.2734    18.6370   114.7990 HW2           1 RES     
    4707 OW           2.4944     6.1200   117.3010 OW            1 RES     
    4708 HW1          1.9024     6.9240   117.3220 HW1           1 RES     
    4709 HW2          3.4514     6.4100   117.2780 HW2           1 RES     
    4710 OW          49.7654    41.3590    92.9960 OW            1 RES     
    4711 HW1         48.8314    41.0130    93.0720 HW1           1 RES     
    4712 HW2         50.3164    41.0030    93.7520 HW2           1 RES     
    4713 OW          54.3504    18.4380    90.5810 OW            1 RES     
    4714 HW1         54.8474    19.3040    90.5370 HW1           1 RES     
    4715 HW2         53.5464    18.5440    91.1670 HW2           1 RES     
    4716 OW           9.8274    48.1760    94.1240 OW            1 RES     
    4717 HW1          9.9604    47.4970    93.4030 HW1           1 RES     
    4718 HW2          9.1954    48.8820    93.8050 HW2           1 RES     
    4719 OW          47.1824     9.7080   116.8730 OW            1 RES     
    4720 HW1         47.9034     9.0160   116.8580 HW1           1 RES     
    4721 HW2         46.3404     9.3220   116.4940 HW2           1 RES     
    4722 OW          42.4554     9.9460    96.5340 OW            1 RES     
    4723 HW1         43.3434     9.7760    96.1080 HW1           1 RES     
    4724 HW2         42.5374    10.6990    97.1870 HW2           1 RES     
    4725 OW          49.1254    39.2580   108.1370 OW            1 RES     
    4726 HW1         49.9644    38.7150   108.1300 HW1           1 RES     
    4727 HW2         48.4014    38.7600   107.6610 HW2           1 RES     
    4728 OW           1.2624    14.7380    90.7670 OW            1 RES     
    4729 HW1          1.8164    14.8060    91.5960 HW1           1 RES     
    4730 HW2          1.2784    15.6130    90.2820 HW2           1 RES     
    4731 OW           0.5934    31.8590    97.7670 OW            1 RES     
    4732 HW1          0.6954    30.8650    97.7330 HW1           1 RES     
    4733 HW2          1.4964    32.2880    97.7680 HW2           1 RES     
    4734 OW          51.1514    28.4160   115.9260 OW            1 RES     
    4735 HW1         50.8014    29.3320   115.7320 HW1           1 RES     
    4736 HW2         50.4384    27.7400   115.7390 HW2           1 RES     
    4737 OW          37.1544    31.5990   106.6160 OW            1 RES     
    4738 HW1         36.4354    32.2940   106.6020 HW1           1 RES     
    4739 HW2         38.0454    32.0420   106.7130 HW2           1 RES     
    4740 OW          24.0874    41.2590   103.9460 OW            1 RES     
    4741 HW1         25.0134    40.8930   103.8600 HW1           1 RES     
    4742 HW2         23.4414    40.5060   104.0720 HW2           1 RES     
    4743 OW          46.0924     6.1960   100.0170 OW            1 RES     
    4744 HW1         46.8844     5.6510    99.7440 HW1           1 RES     
    4745 HW2         45.4314     5.6120   100.4890 HW2           1 RES     
    4746 OW          56.0514     8.1400    97.5070 OW            1 RES     
    4747 HW1         55.9224     7.1600    97.6510 HW1           1 RES     
    4748 HW2         55.2284     8.6310    97.7960 HW2           1 RES     
    4749 OW          52.2374    37.0400   110.3210 OW            1 RES     
    4750 HW1         52.1484    36.0610   110.1380 HW1           1 RES     
    4751 HW2         52.2994    37.5370   109.4550 HW2           1 RES     
    4752 OW          31.5524     7.5390   116.3740 OW            1 RES     
    4753 HW1         30.7754     8.0960   116.0830 HW1           1 RES     
    4754 HW2         31.2554     6.5920   116.4980 HW2           1 RES     
    4755 OW          32.7644    40.7240    95.8190 OW            1 RES     
    4756 HW1         32.4044    40.9770    94.9220 HW1           1 RES     
    4757 HW2         32.7074    41.5090    96.4360 HW2           1 RES     
    4758 OW          28.7404    32.7950    96.6260 OW            1 RES     
    4759 HW1         28.2964    33.3990    97.2870 HW1           1 RES     
    4760 HW2         28.8954    33.2910    95.7720 HW2           1 RES     
    4761 OW          43.1944    35.6840   100.3430 OW            1 RES     
    4762 HW1         42.8454    36.6200   100.3450 HW1           1 RES     
    4763 HW2         42.4754    35.0600   100.0350 HW2           1 RES     
    4764 OW          45.5984     6.0590   112.2800 OW            1 RES     
    4765 HW1         45.9154     5.1120   112.2660 HW1           1 RES     
    4766 HW2         45.8914     6.4980   113.1290 HW2           1 RES     
    4767 OW          39.9374    35.5790   112.9870 OW            1 RES     
    4768 HW1         39.4084    34.9480   112.4200 HW1           1 RES     
    4769 HW2         40.6174    35.0680   113.5120 HW2           1 RES     
    4770 OW          32.6144    21.5540   107.6750 OW            1 RES     
    4771 HW1         31.9244    22.2620   107.8270 HW1           1 RES     
    4772 HW2         32.3404    20.9830   106.9020 HW2           1 RES     
    4773 OW          25.8674    11.2720   114.0060 OW            1 RES     
    4774 HW1         25.1154    11.0870   114.6380 HW1           1 RES     
    4775 HW2         25.6874    12.1220   113.5120 HW2           1 RES     
    4776 OW          48.3864     1.9540   101.0500 OW            1 RES     
    4777 HW1         47.3924     2.0260   100.9700 HW1           1 RES     
    4778 HW2         48.6254     1.0770   101.4670 HW2           1 RES     
    4779 OW          28.9834    13.8670    97.1830 OW            1 RES     
    4780 HW1         29.3294    12.9300    97.1540 HW1           1 RES     
    4781 HW2         28.0244    13.8780    96.9020 HW2           1 RES     
    4782 OW          16.3444    21.9310    90.8920 OW            1 RES     
    4783 HW1         15.3774    22.0310    90.6640 HW1           1 RES     
    4784 HW2         16.4504    21.8820    91.8860 HW2           1 RES     
    4785 OW          55.9494    42.1670   110.7370 OW            1 RES     
    4786 HW1         55.3224    41.4610   111.0620 HW1           1 RES     
    4787 HW2         56.2004    42.7660   111.4970 HW2           1 RES     
    4788 OW          18.7644     8.8010    93.0730 OW            1 RES     
    4789 HW1         18.6484     8.0850    92.3850 HW1           1 RES     
    4790 HW2         19.5294     8.5670    93.6730 HW2           1 RES     
    4791 OW          46.2434    38.6840   110.0830 OW            1 RES     
    4792 HW1         46.4754    37.7590   109.7840 HW1           1 RES     
    4793 HW2         46.7074    38.8820   110.9460 HW2           1 RES     
    4794 OW          11.9884    37.2390    95.0500 OW            1 RES     
    4795 HW1         11.1934    37.8080    95.2580 HW1           1 RES     
    4796 HW2         11.7024    36.2850    94.9610 HW2           1 RES     
    4797 OW          36.5884    15.1040   100.4120 OW            1 RES     
    4798 HW1         35.8504    15.5470   100.9210 HW1           1 RES     
    4799 HW2         36.3174    14.1710   100.1750 HW2           1 RES     
    4800 OW          54.4484    47.2860   104.9600 OW            1 RES     
    4801 HW1         54.8664    46.6260   105.5830 HW1           1 RES     
    4802 HW2         54.0454    46.8030   104.1820 HW2           1 RES     
    4803 OW          38.9464    47.7920   109.7450 OW            1 RES     
    4804 HW1         39.2174    47.1070   110.4190 HW1           1 RES     
    4805 HW2         39.6224    48.5290   109.7270 HW2           1 RES     
    4806 OW          10.5994    32.2270   102.2390 OW            1 RES     
    4807 HW1          9.7424    31.8560   102.5950 HW1           1 RES     
    4808 HW2         11.1324    31.4920   101.8200 HW2           1 RES     
    4809 OW           1.4974    47.2490   111.0900 OW            1 RES     
    4810 HW1          0.8624    48.0070   111.2350 HW1           1 RES     
    4811 HW2          1.1974    46.4550   111.6190 HW2           1 RES     
    4812 OW           5.3724     2.4400   109.2410 OW            1 RES     
    4813 HW1          5.5504     1.6050   108.7210 HW1           1 RES     
    4814 HW2          4.6344     2.2750   109.8970 HW2           1 RES     
    4815 OW          33.6024    28.1690   115.7360 OW            1 RES     
    4816 HW1         33.2704    27.6700   116.5350 HW1           1 RES     
    4817 HW2         34.5744    27.9760   115.6010 HW2           1 RES     
    4818 OW          56.8414     1.3150   102.2050 OW            1 RES     
    4819 HW1         55.8814     1.0380   102.2200 HW1           1 RES     
    4820 HW2         57.0234     1.9280   102.9740 HW2           1 RES     
    4821 OW          25.2994    10.3110   108.5110 OW            1 RES     
    4822 HW1         24.9944    10.1190   109.4430 HW1           1 RES     
    4823 HW2         24.8454     9.6860   107.8760 HW2           1 RES     
    4824 OW           1.1984    15.3050    94.6940 OW            1 RES     
    4825 HW1          0.8644    16.2410    94.8000 HW1           1 RES     
    4826 HW2          0.5154    14.7600    94.2070 HW2           1 RES     
    4827 OW          50.4674    23.0280   105.9680 OW            1 RES     
    4828 HW1         49.6434    23.5900   106.0270 HW1           1 RES     
    4829 HW2         50.2084    22.0690   105.8460 HW2           1 RES     
    4830 OW          53.3744    22.7960   113.0480 OW            1 RES     
    4831 HW1         52.6694    23.5030   113.0600 HW1           1 RES     
    4832 HW2         52.9464    21.8990   112.9290 HW2           1 RES     
    4833 OW          10.3904     7.2990   101.3470 OW            1 RES     
    4834 HW1         11.2304     7.2060   101.8800 HW1           1 RES     
    4835 HW2          9.7264     6.6140   101.6480 HW2           1 RES     
    4836 OW          11.2904    15.4170   112.7300 OW            1 RES     
    4837 HW1         10.6294    15.9630   112.2180 HW1           1 RES     
    4838 HW2         11.9804    16.0190   113.1330 HW2           1 RES     
    4839 OW          55.4474    16.8590    93.8280 OW            1 RES     
    4840 HW1         54.8414    17.6400    93.6830 HW1           1 RES     
    4841 HW2         56.3454    17.1830    94.1280 HW2           1 RES     
    4842 OW          14.4714    30.1820    93.1400 OW            1 RES     
    4843 HW1         14.5624    29.7640    94.0430 HW1           1 RES     
    4844 HW2         15.3054    30.0210    92.6120 HW2           1 RES     
    4845 OW          28.5904    36.8290   107.7040 OW            1 RES     
    4846 HW1         28.2794    37.7430   107.9640 HW1           1 RES     
    4847 HW2         29.5794    36.7630   107.8390 HW2           1 RES     
    4848 OW          11.8634    13.4830   115.0170 OW            1 RES     
    4849 HW1         11.7814    14.4020   114.6320 HW1           1 RES     
    4850 HW2         11.8364    13.5360   116.0160 HW2           1 RES     
    4851 OW          37.3744    45.3900   106.9570 OW            1 RES     
    4852 HW1         38.3464    45.2480   106.7760 HW1           1 RES     
    4853 HW2         36.8754    44.5390   106.7890 HW2           1 RES     
    4854 OW          40.2704     9.2420    92.1310 OW            1 RES     
    4855 HW1         39.8454     9.0350    93.0110 HW1           1 RES     
    4856 HW2         40.1924    10.2220    91.9450 HW2           1 RES     
    4857 OW          28.9274    19.2070    98.0230 OW            1 RES     
    4858 HW1         28.5574    18.3300    98.3280 HW1           1 RES     
    4859 HW2         28.6734    19.9220    98.6750 HW2           1 RES     
    4860 OW          50.6224    18.9280   109.1810 OW            1 RES     
    4861 HW1         51.4864    18.6890   109.6230 HW1           1 RES     
    4862 HW2         50.0374    19.4130   109.8320 HW2           1 RES     
    4863 OW          49.0364    38.9510    91.1780 OW            1 RES     
    4864 HW1         48.7954    38.5750    90.2830 HW1           1 RES     
    4865 HW2         49.6364    39.7420    91.0570 HW2           1 RES     
    4866 OW          36.5604    22.7230   110.3870 OW            1 RES     
    4867 HW1         36.1114    21.8400   110.2570 HW1           1 RES     
    4868 HW2         37.5424    22.5830   110.5140 HW2           1 RES     
    4869 OW           1.1834    39.1640    92.0720 OW            1 RES     
    4870 HW1          1.7194    39.3240    92.9000 HW1           1 RES     
    4871 HW2          1.7914    38.8870    91.3280 HW2           1 RES     
    4872 OW          10.4214    10.9430   106.1040 OW            1 RES     
    4873 HW1         10.4524    11.4160   105.2240 HW1           1 RES     
    4874 HW2         11.1134    10.2220   106.1200 HW2           1 RES     
    4875 OW          40.3144     1.3430    91.2900 OW            1 RES     
    4876 HW1         40.9804     0.6140    91.4430 HW1           1 RES     
    4877 HW2         39.4274     0.9410    91.0610 HW2           1 RES     
    4878 OW          24.9184    26.9150    91.9540 OW            1 RES     
    4879 HW1         25.5784    26.1650    91.9360 HW1           1 RES     
    4880 HW2         25.0254    27.4740    91.1320 HW2           1 RES     
    4881 OW          11.9974    15.4160   102.4760 OW            1 RES     
    4882 HW1         12.8944    15.5400   102.9000 HW1           1 RES     
    4883 HW2         11.8314    14.4410   102.3260 HW2           1 RES     
    4884 OW           2.4504     9.0650    98.4690 OW            1 RES     
    4885 HW1          2.4024     8.1550    98.0580 HW1           1 RES     
    4886 HW2          3.3514     9.4620    98.2960 HW2           1 RES     
    4887 OW          13.2504    20.3180    93.6780 OW            1 RES     
    4888 HW1         12.6264    19.5970    93.3780 HW1           1 RES     
    4889 HW2         12.7234    21.1100    93.9850 HW2           1 RES     
    4890 OW          13.1184    44.6000    90.7200 OW            1 RES     
    4891 HW1         12.4394    44.9370    91.3720 HW1           1 RES     
    4892 HW2         13.5584    43.7810    91.0880 HW2           1 RES     
    4893 OW          10.6584    34.9140   101.4450 OW            1 RES     
    4894 HW1         10.4734    34.0410   100.9940 HW1           1 RES     
    4895 HW2         11.6454    35.0220   101.5700 HW2           1 RES     
    4896 OW          32.9884    41.2820   111.3060 OW            1 RES     
    4897 HW1         32.6114    42.1560   111.6100 HW1           1 RES     
    4898 HW2         33.9784    41.3680   111.1920 HW2           1 RES     
    4899 OW          43.0894    40.5020   113.7480 OW            1 RES     
    4900 HW1         43.3074    40.4550   112.7740 HW1           1 RES     
    4901 HW2         42.1264    40.2730   113.8860 HW2           1 RES     
    4902 OW          44.5104     2.5630    94.5830 OW            1 RES     
    4903 HW1         43.8274     3.2910    94.6180 HW1           1 RES     
    4904 HW2         44.9704     2.5770    93.6950 HW2           1 RES     
    4905 OW          32.4304     7.1880   114.3800 OW            1 RES     
    4906 HW1         32.4434     6.2240   114.6440 HW1           1 RES     
    4907 HW2         31.7514     7.3280   113.6600 HW2           1 RES     
    4908 OW          49.2724    34.9900   107.5120 OW            1 RES     
    4909 HW1         48.8464    35.8880   107.6150 HW1           1 RES     
    4910 HW2         50.2414    35.1040   107.2920 HW2           1 RES     
    4911 OW          50.8564     7.3220   117.3770 OW            1 RES     
    4912 HW1         50.2804     6.5050   117.3860 HW1           1 RES     
    4913 HW2         50.2964     8.1280   117.5660 HW2           1 RES     
    4914 OW          14.2614     0.6090   102.2010 OW            1 RES     
    4915 HW1         13.5334     0.0000   102.5120 HW1           1 RES     
    4916 HW2         15.1484     0.2360   102.4730 HW2           1 RES     
    4917 OW          30.7524     8.7880   101.8480 OW            1 RES     
    4918 HW1         30.4744     9.7430   101.7580 HW1           1 RES     
    4919 HW2         31.7434     8.7380   101.9700 HW2           1 RES     
    4920 OW          34.8514     6.3230   116.2110 OW            1 RES     
    4921 HW1         33.8784     6.4970   116.3590 HW1           1 RES     
    4922 HW2         35.2684     7.1140   115.7630 HW2           1 RES     
    4923 OW           8.8214     2.3490    98.1090 OW            1 RES     
    4924 HW1          8.7644     1.3550    98.1960 HW1           1 RES     
    4925 HW2          7.9004     2.7380    98.1030 HW2           1 RES     
    4926 OW          12.2774    11.2640   102.8930 OW            1 RES     
    4927 HW1         11.6794    12.0190   103.1610 HW1           1 RES     
    4928 HW2         12.1764    10.5110   103.5430 HW2           1 RES     
    4929 OW          35.2364    44.7730   114.0700 OW            1 RES     
    4930 HW1         34.5264    44.9210   113.3820 HW1           1 RES     
    4931 HW2         35.0754    45.3760   114.8510 HW2           1 RES     
    4932 OW           9.8994    39.6110   111.6170 OW            1 RES     
    4933 HW1         10.3564    39.1760   110.8420 HW1           1 RES     
    4934 HW2         10.4364    40.3980   111.9230 HW2           1 RES     
    4935 OW          11.0114    14.6980   105.1540 OW            1 RES     
    4936 HW1         11.6244    13.9100   105.2160 HW1           1 RES     
    4937 HW2         11.5514    15.5350   105.0690 HW2           1 RES     
    4938 OW          37.5864     0.9660   115.4810 OW            1 RES     
    4939 HW1         38.0194     1.6190   114.8610 HW1           1 RES     
    4940 HW2         38.1324     0.1290   115.5190 HW2           1 RES     
    4941 OW          33.6764     2.3780   105.5590 OW            1 RES     
    4942 HW1         33.6614     1.4000   105.3530 HW1           1 RES     
    4943 HW2         32.7394     2.7270   105.5890 HW2           1 RES     
    4944 OW          49.9164    34.6850   112.1350 OW            1 RES     
    4945 HW1         49.2424    34.7160   111.3980 HW1           1 RES     
    4946 HW2         50.4984    35.4980   112.0890 HW2           1 RES     
    4947 OW          18.6924    42.9530   110.3320 OW            1 RES     
    4948 HW1         18.4834    42.2920   109.6120 HW1           1 RES     
    4949 HW2         18.2634    42.6620   111.1870 HW2           1 RES     
    4950 OW          10.8924    45.8150   116.0070 OW            1 RES     
    4951 HW1         10.0714    45.7490   116.5730 HW1           1 RES     
    4952 HW2         11.2274    46.7580   116.0140 HW2           1 RES     
    4953 OW          17.3304    18.6970   100.4310 OW            1 RES     
    4954 HW1         16.5474    19.1330    99.9880 HW1           1 RES     
    4955 HW2         17.6854    17.9710    99.8410 HW2           1 RES     
    4956 OW          46.5244    12.2540   111.4200 OW            1 RES     
    4957 HW1         46.1454    11.3300   111.3800 HW1           1 RES     
    4958 HW2         45.8364    12.8800   111.7890 HW2           1 RES     
    4959 OW          21.9264    24.1370    97.2040 OW            1 RES     
    4960 HW1         21.9164    24.1530    96.2050 HW1           1 RES     
    4961 HW2         22.0584    25.0660    97.5520 HW2           1 RES     
    4962 OW          52.3584    16.1440   107.5680 OW            1 RES     
    4963 HW1         51.5144    15.6700   107.8180 HW1           1 RES     
    4964 HW2         52.9294    15.5400   107.0130 HW2           1 RES     
    4965 OW          14.4394    38.5410    93.5960 OW            1 RES     
    4966 HW1         14.2494    38.0710    94.4580 HW1           1 RES     
    4967 HW2         13.9454    38.0890    92.8530 HW2           1 RES     
    4968 OW          13.2284    40.4780   116.9410 OW            1 RES     
    4969 HW1         13.3104    39.4830   116.9010 HW1           1 RES     
    4970 HW2         12.2634    40.7350   116.9060 HW2           1 RES     
    4971 OW          24.8954    48.7060   111.8360 OW            1 RES     
    4972 HW1         24.5984    49.0530   110.9470 HW1           1 RES     
    4973 HW2         24.9474    47.7080   111.8050 HW2           1 RES     
    4974 OW          35.5424    40.0350    97.7060 OW            1 RES     
    4975 HW1         34.9894    39.4730    98.3200 HW1           1 RES     
    4976 HW2         35.6594    39.5600    96.8330 HW2           1 RES     
    4977 OW          28.3384     9.9340   107.1050 OW            1 RES     
    4978 HW1         29.1274    10.5350   106.9880 HW1           1 RES     
    4979 HW2         28.6524     9.0140   107.3420 HW2           1 RES     
    4980 OW           2.8344    13.3020   108.2540 OW            1 RES     
    4981 HW1          1.9574    13.5820   107.8670 HW1           1 RES     
    4982 HW2          3.5104    14.0250   108.1070 HW2           1 RES     
    4983 OW          36.2234    22.1050   113.0140 OW            1 RES     
    4984 HW1         35.7074    22.8870   112.6670 HW1           1 RES     
    4985 HW2         35.9794    21.2860   112.4930 HW2           1 RES     
    4986 OW          22.5424    18.1760    96.8600 OW            1 RES     
    4987 HW1         23.4324    18.5440    96.5940 HW1           1 RES     
    4988 HW2         21.8214    18.6430    96.3470 HW2           1 RES     
    4989 OW          32.2144     9.3880   105.3660 OW            1 RES     
    4990 HW1         31.2524     9.6500   105.4330 HW1           1 RES     
    4991 HW2         32.7524    10.1700   105.0530 HW2           1 RES     
    4992 OW          32.5244     3.5330   100.6680 OW            1 RES     
    4993 HW1         31.5354     3.4290   100.5710 HW1           1 RES     
    4994 HW2         32.9524     2.6290   100.7140 HW2           1 RES     
    4995 OW          16.9084    24.0510    91.1430 OW            1 RES     
    4996 HW1         16.2114    24.2000    90.4430 HW1           1 RES     
    4997 HW2         17.0774    24.9050    91.6340 HW2           1 RES     
    4998 OW           7.3544    18.7310    90.4600 OW            1 RES     
    4999 HW1          6.3994    19.0060    90.3590 HW1           1 RES     
    5000 HW2          7.9364    19.5440    90.4830 HW2           1 RES     
    5001 OW           4.3764    27.6580   101.7530 OW            1 RES     
    5002 HW1          3.9494    28.5610   101.7860 HW1           1 RES     
    5003 HW2          4.9744    27.6000   100.9530 HW2           1 RES     
    5004 OW          53.5714    21.6070    90.9710 OW            1 RES     
    5005 HW1         52.5954    21.5010    90.7880 HW1           1 RES     
    5006 HW2         53.6994    22.0550    91.8560 HW2           1 RES     
    5007 OW          51.4544    40.5480    98.5960 OW            1 RES     
    5008 HW1         51.3784    41.2240    97.8640 HW1           1 RES     
    5009 HW2         50.9744    40.8800    99.4080 HW2           1 RES     
    5010 OW          19.2514     4.0540   108.6590 OW            1 RES     
    5011 HW1         19.7774     4.5640   109.3390 HW1           1 RES     
    5012 HW2         19.4954     3.0850   108.7060 HW2           1 RES     
    5013 OW          14.4914    38.6410   106.9230 OW            1 RES     
    5014 HW1         15.4444    38.3410   106.8910 HW1           1 RES     
    5015 HW2         13.8894    37.8430   106.8930 HW2           1 RES     
    5016 OW          45.7934    28.6540   104.8630 OW            1 RES     
    5017 HW1         46.7714    28.8080   104.7280 HW1           1 RES     
    5018 HW2         45.3104    28.7940   103.9990 HW2           1 RES     
    5019 OW          31.0104     4.2830   113.3440 OW            1 RES     
    5020 HW1         30.2274     3.6730   113.2320 HW1           1 RES     
    5021 HW2         30.7054     5.2340   113.2820 HW2           1 RES     
    5022 OW          12.9614    18.2620   111.1180 OW            1 RES     
    5023 HW1         12.7614    17.3630   111.5040 HW1           1 RES     
    5024 HW2         12.1174    18.7940   111.0550 HW2           1 RES     
    5025 OW          29.2694    35.5240    91.2080 OW            1 RES     
    5026 HW1         28.9184    34.5980    91.3470 HW1           1 RES     
    5027 HW2         29.0444    35.8310    90.2830 HW2           1 RES     
    5028 OW          30.3754    28.8740   105.3060 OW            1 RES     
    5029 HW1         29.5104    28.3730   105.3040 HW1           1 RES     
    5030 HW2         31.0524    28.3740   104.7660 HW2           1 RES     
    5031 OW          51.8934    26.9070   108.6810 OW            1 RES     
    5032 HW1         51.9624    27.9020   108.6230 HW1           1 RES     
    5033 HW2         52.7884    26.4990   108.4960 HW2           1 RES     
    5034 OW           1.1484    42.4790   114.3420 OW            1 RES     
    5035 HW1          1.4944    41.5890   114.6370 HW1           1 RES     
    5036 HW2          1.7944    42.8940   113.7010 HW2           1 RES     
    5037 OW          11.1454    22.7220    94.0990 OW            1 RES     
    5038 HW1         10.6834    21.8650    94.3250 HW1           1 RES     
    5039 HW2         10.7034    23.1400    93.3050 HW2           1 RES     
    5040 OW          22.2004    40.2750   109.1190 OW            1 RES     
    5041 HW1         21.3804    40.5340   108.6090 HW1           1 RES     
    5042 HW2         22.8744    41.0130   109.0650 HW2           1 RES     
    5043 OW          34.9894    16.6350    91.4720 OW            1 RES     
    5044 HW1         35.6314    15.8810    91.6070 HW1           1 RES     
    5045 HW2         34.4724    16.4860    90.6290 HW2           1 RES     
    5046 OW          25.3634    41.2310   107.2830 OW            1 RES     
    5047 HW1         25.6034    41.5690   106.3740 HW1           1 RES     
    5048 HW2         24.4074    41.4520   107.4800 HW2           1 RES     
    5049 OW          12.5204    22.3110   116.1970 OW            1 RES     
    5050 HW1         13.4494    22.5810   115.9450 HW1           1 RES     
    5051 HW2         12.4664    21.3140   116.2570 HW2           1 RES     
    5052 OW          14.3244    20.1580   116.5830 OW            1 RES     
    5053 HW1         14.9324    19.3760   116.7190 HW1           1 RES     
    5054 HW2         14.8654    20.9990   116.5520 HW2           1 RES     
    5055 OW           5.5824    44.3790   107.1920 OW            1 RES     
    5056 HW1          6.5384    44.6690   107.1910 HW1           1 RES     
    5057 HW2          5.5364    43.3800   107.2120 HW2           1 RES     
    5058 OW           8.4354    41.9310    93.7940 OW            1 RES     
    5059 HW1          7.5154    41.5880    93.6080 HW1           1 RES     
    5060 HW2          8.9804    41.8960    92.9560 HW2           1 RES     
    5061 OW          32.3414    13.7290   104.8130 OW            1 RES     
    5062 HW1         31.6474    13.3700   104.1890 HW1           1 RES     
    5063 HW2         32.1864    13.3620   105.7310 HW2           1 RES     
    5064 OW           9.0304    28.1650   116.7530 OW            1 RES     
    5065 HW1          8.5314    28.8990   116.2930 HW1           1 RES     
    5066 HW2          8.6084    27.2860   116.5340 HW2           1 RES     
    5067 OW          26.5774    12.6060    94.5100 OW            1 RES     
    5068 HW1         26.7024    13.2030    93.7190 HW1           1 RES     
    5069 HW2         26.3034    11.6950    94.2020 HW2           1 RES     
    5070 OW          30.0734     6.2710   102.0610 OW            1 RES     
    5071 HW1         29.1674     5.8510   102.1020 HW1           1 RES     
    5072 HW2         30.7744     5.5630   102.1550 HW2           1 RES     
    5073 OW          51.0334     1.1330   116.4190 OW            1 RES     
    5074 HW1         51.4054     1.4010   117.3070 HW1           1 RES     
    5075 HW2         51.6864     1.3640   115.6990 HW2           1 RES     
    5076 OW           3.0234    16.7150    91.2610 OW            1 RES     
    5077 HW1          3.8974    16.8190    90.7870 HW1           1 RES     
    5078 HW2          2.3794    17.4050    90.9300 HW2           1 RES     
    5079 OW          53.9474    39.2290   108.3270 OW            1 RES     
    5080 HW1         54.9044    39.4720   108.4810 HW1           1 RES     
    5081 HW2         53.4084    40.0600   108.1920 HW2           1 RES     
    5082 OW          56.0704    40.6910   102.4470 OW            1 RES     
    5083 HW1         55.2964    40.3760   102.9940 HW1           1 RES     
    5084 HW2         56.0254    40.2810   101.5360 HW2           1 RES     
    5085 OW          43.9204    13.0220    98.6730 OW            1 RES     
    5086 HW1         43.1434    12.5180    98.2970 HW1           1 RES     
    5087 HW2         44.6324    13.1080    97.9750 HW2           1 RES     
    5088 OW          23.2014    35.0790    96.6660 OW            1 RES     
    5089 HW1         22.4404    34.7220    96.1260 HW1           1 RES     
    5090 HW2         23.1084    34.7770    97.6150 HW2           1 RES     
    5091 OW          39.3644    27.0460    94.0940 OW            1 RES     
    5092 HW1         39.5284    26.4490    93.3090 HW1           1 RES     
    5093 HW2         40.1134    27.7030    94.1760 HW2           1 RES     
    5094 OW           7.3394    47.0170    97.6060 OW            1 RES     
    5095 HW1          7.8064    47.7560    97.1230 HW1           1 RES     
    5096 HW2          8.0154    46.3790    97.9750 HW2           1 RES     
    5097 OW          28.6554    37.4700   105.3800 OW            1 RES     
    5098 HW1         28.8834    37.0840   104.4870 HW1           1 RES     
    5099 HW2         29.2224    38.2760   105.5510 HW2           1 RES     
    5100 OW          11.0704    43.2020   112.7560 OW            1 RES     
    5101 HW1         11.5334    42.7130   112.0180 HW1           1 RES     
    5102 HW2         11.7334    43.4410   113.4660 HW2           1 RES     
    5103 OW          22.1534     7.4430   103.2770 OW            1 RES     
    5104 HW1         21.1774     7.3970   103.0670 HW1           1 RES     
    5105 HW2         22.6544     7.7600   102.4710 HW2           1 RES     
    5106 OW          57.2364    15.4510   106.6130 OW            1 RES     
    5107 HW1         56.8034    16.1470   107.1850 HW1           1 RES     
    5108 HW2         56.6714    14.6260   106.6060 HW2           1 RES     
    5109 OW           5.0844    35.6870   106.9690 OW            1 RES     
    5110 HW1          4.5194    34.9200   107.2720 HW1           1 RES     
    5111 HW2          5.3054    35.5750   106.0000 HW2           1 RES     
    5112 OW          32.3384    11.2390    95.1450 OW            1 RES     
    5113 HW1         31.5854    11.6490    94.6310 HW1           1 RES     
    5114 HW2         32.3104    10.2440    95.0420 HW2           1 RES     
    5115 OW          15.4524    20.0950    92.9000 OW            1 RES     
    5116 HW1         14.8504    20.3870    92.1590 HW1           1 RES     
    5117 HW2         15.5744    19.1030    92.8620 HW2           1 RES     
    5118 OW           7.6934    47.6920   105.8840 OW            1 RES     
    5119 HW1          8.4744    48.3050   105.9970 HW1           1 RES     
    5120 HW2          6.8704    48.2290   105.7010 HW2           1 RES     
    5121 OW          39.8094    13.8620   100.8280 OW            1 RES     
    5122 HW1         40.7184    14.0550   101.1960 HW1           1 RES     
    5123 HW2         39.4504    13.0270   101.2460 HW2           1 RES     
    5124 OW          12.1654    26.5630   117.0810 OW            1 RES     
    5125 HW1         11.5514    27.2420   116.6810 HW1           1 RES     
    5126 HW2         12.9984    27.0140   117.4030 HW2           1 RES     
    5127 OW          29.4094    35.1220   110.9980 OW            1 RES     
    5128 HW1         29.6154    34.9580   110.0340 HW1           1 RES     
    5129 HW2         29.9094    34.4650   111.5630 HW2           1 RES     
    5130 OW          25.1134     0.5400   108.0110 OW            1 RES     
    5131 HW1         24.3194     1.1440   108.0660 HW1           1 RES     
    5132 HW2         25.1824     0.0020   108.8510 HW2           1 RES     
    5133 OW          37.6114    26.4280   112.0370 OW            1 RES     
    5134 HW1         37.2824    26.3790   111.0940 HW1           1 RES     
    5135 HW2         37.3494    25.5950   112.5250 HW2           1 RES     
    5136 OW          11.0154     6.0860   108.3130 OW            1 RES     
    5137 HW1         11.8884     6.4060   108.6790 HW1           1 RES     
    5138 HW2         10.4044     5.8460   109.0690 HW2           1 RES     
    5139 OW          22.6414     2.2310   109.5000 OW            1 RES     
    5140 HW1         23.2314     2.9420   109.8820 HW1           1 RES     
    5141 HW2         22.4004     2.4670   108.5590 HW2           1 RES     
    5142 OW          33.6774    36.9560   104.5590 OW            1 RES     
    5143 HW1         33.2444    37.6050   105.1850 HW1           1 RES     
    5144 HW2         34.6324    36.8230   104.8240 HW2           1 RES     
    5145 OW          34.0894    28.9820   111.0320 OW            1 RES     
    5146 HW1         34.3954    28.6790   111.9330 HW1           1 RES     
    5147 HW2         33.0924    29.0680   111.0290 HW2           1 RES     
    5148 OW          25.2194    40.1790    95.3970 OW            1 RES     
    5149 HW1         25.9684    39.5800    95.1170 HW1           1 RES     
    5150 HW2         24.6424    40.3850    94.6060 HW2           1 RES     
    5151 OW          21.5254    43.9290   115.6400 OW            1 RES     
    5152 HW1         21.4664    43.4410   116.5110 HW1           1 RES     
    5153 HW2         22.3404    44.5080   115.6360 HW2           1 RES     
    5154 OW          54.6434    11.3700    96.0340 OW            1 RES     
    5155 HW1         54.5364    10.3770    96.0050 HW1           1 RES     
    5156 HW2         55.5474    11.6180    95.6860 HW2           1 RES     
    5157 OW          13.3434     8.8400   117.3450 OW            1 RES     
    5158 HW1         13.4614     8.3290   116.4940 HW1           1 RES     
    5159 HW2         12.3704     8.9020   117.5650 HW2           1 RES     
    5160 OW          55.2134    32.5790   116.0670 OW            1 RES     
    5161 HW1         55.0844    31.6060   116.2540 HW1           1 RES     
    5162 HW2         56.1904    32.7780   115.9900 HW2           1 RES     
    5163 OW          13.1834    43.2120   104.9940 OW            1 RES     
    5164 HW1         14.0094    42.9780   104.4830 HW1           1 RES     
    5165 HW2         12.5124    43.6210   104.3750 HW2           1 RES     
    5166 OW          32.5354     4.7100   110.5400 OW            1 RES     
    5167 HW1         32.4114     4.4350   109.5870 HW1           1 RES     
    5168 HW2         31.8224     5.3630   110.7950 HW2           1 RES     
    5169 OW           9.2544    21.0790   116.2790 OW            1 RES     
    5170 HW1         10.1964    21.3660   116.1070 HW1           1 RES     
    5171 HW2          8.7894    20.9200   115.4080 HW2           1 RES     
    5172 OW          40.1984    12.9980   111.5330 OW            1 RES     
    5173 HW1         40.0494    12.0100   111.5640 HW1           1 RES     
    5174 HW2         39.4994    13.4230   110.9570 HW2           1 RES     
    5175 OW          18.0024    38.0040   100.1220 OW            1 RES     
    5176 HW1         17.5114    37.2750   100.5960 HW1           1 RES     
    5177 HW2         17.7764    38.8850   100.5380 HW2           1 RES     
    5178 OW          22.7974     5.2710   102.4330 OW            1 RES     
    5179 HW1         22.6484     5.6870   101.5370 HW1           1 RES     
    5180 HW2         21.9384     5.2690   102.9460 HW2           1 RES     
    5181 OW          53.0694     3.0340   103.4180 OW            1 RES     
    5182 HW1         54.0134     3.2730   103.1930 HW1           1 RES     
    5183 HW2         52.5714     3.8580   103.6870 HW2           1 RES     
    5184 OW           3.8124    26.7800    92.7530 OW            1 RES     
    5185 HW1          4.1784    27.6820    92.5280 HW1           1 RES     
    5186 HW2          2.8364    26.8580    92.9580 HW2           1 RES     
    5187 OW          40.6624    40.4830   105.1370 OW            1 RES     
    5188 HW1         41.5644    40.7020   105.5090 HW1           1 RES     
    5189 HW2         40.3644    39.5950   105.4880 HW2           1 RES     
    5190 OW          20.5094    46.6030    95.6100 OW            1 RES     
    5191 HW1         19.6424    46.1980    95.8980 HW1           1 RES     
    5192 HW2         20.8734    47.1730    96.3480 HW2           1 RES     
    5193 OW          37.4314    24.4570   103.3770 OW            1 RES     
    5194 HW1         37.6894    24.2600   104.3220 HW1           1 RES     
    5195 HW2         36.4614    24.6970   103.3390 HW2           1 RES     
    5196 OW           7.5074    17.7800    95.3350 OW            1 RES     
    5197 HW1          7.1394    16.8550    95.2460 HW1           1 RES     
    5198 HW2          8.2154    17.7910    96.0410 HW2           1 RES     
    5199 OW          35.5294    25.9320    96.1300 OW            1 RES     
    5200 HW1         34.6724    26.3340    96.4510 HW1           1 RES     
    5201 HW2         35.9914    25.4790    96.8920 HW2           1 RES     
    5202 OW          50.6294    33.6750   109.0550 OW            1 RES     
    5203 HW1         51.4954    33.1760   109.0810 HW1           1 RES     
    5204 HW2         49.8694    33.0280   109.1240 HW2           1 RES     
    5205 OW           1.1524    38.0880   105.6980 OW            1 RES     
    5206 HW1          1.3254    39.0720   105.6720 HW1           1 RES     
    5207 HW2          1.0544    37.7420   104.7650 HW2           1 RES     
    5208 OW           7.1504    20.0610   103.1120 OW            1 RES     
    5209 HW1          8.0534    20.4130   102.8670 HW1           1 RES     
    5210 HW2          7.2054    19.0720   103.2510 HW2           1 RES     
    5211 OW          11.6924     2.7140   107.5430 OW            1 RES     
    5212 HW1         11.1384     2.9200   108.3490 HW1           1 RES     
    5213 HW2         11.9364     3.5660   107.0790 HW2           1 RES     
    5214 OW          56.9134    11.2210   100.4720 OW            1 RES     
    5215 HW1         57.1274    11.0020    99.5200 HW1           1 RES     
    5216 HW2         55.9234    11.1820   100.6090 HW2           1 RES     
    5217 OW          52.6394    26.2020   114.3450 OW            1 RES     
    5218 HW1         51.6734    26.3780   114.5300 HW1           1 RES     
    5219 HW2         53.1964    26.9140   114.7750 HW2           1 RES     
    5220 OW          46.1464    36.2680   107.1860 OW            1 RES     
    5221 HW1         45.8554    36.3630   108.1370 HW1           1 RES     
    5222 HW2         46.9134    36.8840   107.0080 HW2           1 RES     
    5223 OW           7.1144    16.7290    99.9650 OW            1 RES     
    5224 HW1          7.0964    17.1050   100.8910 HW1           1 RES     
    5225 HW2          6.8984    15.7530    99.9970 HW2           1 RES     
    5226 OW           4.6584    38.1820    91.2940 OW            1 RES     
    5227 HW1          5.0714    37.8800    92.1530 HW1           1 RES     
    5228 HW2          4.4084    37.3840    90.7460 HW2           1 RES     
    5229 OW          44.3254    33.4570   112.5910 OW            1 RES     
    5230 HW1         44.7814    33.9890   113.3040 HW1           1 RES     
    5231 HW2         44.1884    34.0290   111.7830 HW2           1 RES     
    5232 OW          32.2384    26.2760   106.8380 OW            1 RES     
    5233 HW1         31.4844    26.3920   107.4840 HW1           1 RES     
    5234 HW2         32.0894    26.8620   106.0410 HW2           1 RES     
    5235 OW          35.9854    18.2510    94.7150 OW            1 RES     
    5236 HW1         36.4654    17.3880    94.5580 HW1           1 RES     
    5237 HW2         35.9824    18.4580    95.6930 HW2           1 RES     
    5238 OW          44.9094    12.6060   116.6320 OW            1 RES     
    5239 HW1         43.9814    12.3930   116.9360 HW1           1 RES     
    5240 HW2         45.5694    12.1320   117.2150 HW2           1 RES     
    5241 OW           3.5024    38.9120   114.4720 OW            1 RES     
    5242 HW1          2.5314    38.8070   114.2610 HW1           1 RES     
    5243 HW2          3.8254    38.1070   114.9710 HW2           1 RES     
    5244 OW          55.4124    17.0650    97.1340 OW            1 RES     
    5245 HW1         55.5884    17.3880    96.2040 HW1           1 RES     
    5246 HW2         55.0894    16.1190    97.1040 HW2           1 RES     
    5247 OW          24.9594     0.0010    92.1170 OW            1 RES     
    5248 HW1         24.8074     0.1970    91.1480 HW1           1 RES     
    5249 HW2         25.7414     0.5310    92.4450 HW2           1 RES     
    5250 OW          27.9324     4.0630    96.8710 OW            1 RES     
    5251 HW1         27.2094     3.3820    96.9790 HW1           1 RES     
    5252 HW2         27.5364     4.9230    96.5470 HW2           1 RES     
    5253 OW           5.6684    36.6960   116.2930 OW            1 RES     
    5254 HW1          6.5324    37.1110   116.5760 HW1           1 RES     
    5255 HW2          4.9064    37.2220   116.6700 HW2           1 RES     
    5256 OW          48.7004     5.5730    94.9500 OW            1 RES     
    5257 HW1         49.3404     6.1180    94.4090 HW1           1 RES     
    5258 HW2         48.8314     4.6030    94.7440 HW2           1 RES     
    5259 OW          11.3864    16.6900   109.2390 OW            1 RES     
    5260 HW1         12.2924    17.0910   109.3720 HW1           1 RES     
    5261 HW2         10.7694    17.0130   109.9570 HW2           1 RES     
    5262 OW           1.5174     5.1810   105.3460 OW            1 RES     
    5263 HW1          2.4714     5.2360   105.6400 HW1           1 RES     
    5264 HW2          1.4544     5.4090   104.3750 HW2           1 RES     
    5265 OW          10.5154    32.9620   114.6460 OW            1 RES     
    5266 HW1          9.5244    32.9080   114.5290 HW1           1 RES     
    5267 HW2         10.9434    32.1490   114.2520 HW2           1 RES     
    5268 OW          48.1434    40.7930   113.2870 OW            1 RES     
    5269 HW1         48.6914    41.6050   113.0870 HW1           1 RES     
    5270 HW2         48.7464    40.0420   113.5590 HW2           1 RES     
    5271 OW          48.8514    25.5240    95.7700 OW            1 RES     
    5272 HW1         48.7244    24.5550    95.9790 HW1           1 RES     
    5273 HW2         49.5634    25.9030    96.3610 HW2           1 RES     
    5274 OW           4.8224    43.2600    97.5520 OW            1 RES     
    5275 HW1          5.2054    42.3530    97.3770 HW1           1 RES     
    5276 HW2          5.5214    43.8430    97.9660 HW2           1 RES     
    5277 OW          40.4754    48.0000    98.7930 OW            1 RES     
    5278 HW1         39.5254    48.3070    98.7610 HW1           1 RES     
    5279 HW2         40.5024    47.0020    98.8550 HW2           1 RES     
    5280 OW          30.0214    40.3140    95.3680 OW            1 RES     
    5281 HW1         29.5704    41.0400    95.8850 HW1           1 RES     
    5282 HW2         30.3134    39.5900    95.9930 HW2           1 RES     
    5283 OW          48.1944    19.8180    94.4080 OW            1 RES     
    5284 HW1         47.4574    19.1510    94.5120 HW1           1 RES     
    5285 HW2         49.0544    19.3410    94.2310 HW2           1 RES     
    5286 OW          25.4324    34.0740   104.5210 OW            1 RES     
    5287 HW1         25.4994    33.1110   104.7800 HW1           1 RES     
    5288 HW2         24.4694    34.3320   104.4440 HW2           1 RES     
    5289 OW          10.2604    48.2540   117.3050 OW            1 RES     
    5290 HW1          9.9684    48.8700   116.5750 HW1           1 RES     
    5291 HW2          9.5074    47.6400   117.5460 HW2           1 RES     
    5292 OW          46.2544    32.0700   106.8370 OW            1 RES     
    5293 HW1         47.0194    32.7130   106.8260 HW1           1 RES     
    5294 HW2         46.6024    31.1410   106.9700 HW2           1 RES     
    5295 OW          13.6764    10.7590    94.4210 OW            1 RES     
    5296 HW1         14.5024    10.2130    94.5550 HW1           1 RES     
    5297 HW2         13.1124    10.7200    95.2460 HW2           1 RES     
    5298 OW          45.6444    13.2700    93.3830 OW            1 RES     
    5299 HW1         45.0884    13.5660    92.6080 HW1           1 RES     
    5300 HW2         45.2444    13.6160    94.2320 HW2           1 RES     
    5301 OW          52.3604    12.9690   103.1230 OW            1 RES     
    5302 HW1         52.0644    13.8990   102.9070 HW1           1 RES     
    5303 HW2         53.3584    12.9210   103.0920 HW2           1 RES     
    5304 OW           0.3044    33.6400   111.8450 OW            1 RES     
    5305 HW1          1.1444    33.2500   112.2200 HW1           1 RES     
    5306 HW2          0.1004    33.2110   110.9640 HW2           1 RES     
    5307 OW          38.5414     9.5960   103.1400 OW            1 RES     
    5308 HW1         37.8744     8.8530   103.0930 HW1           1 RES     
    5309 HW2         38.0624    10.4740   103.1360 HW2           1 RES     
    5310 OW           0.6454    22.5470   109.6620 OW            1 RES     
    5311 HW1          0.7064    23.5390   109.5560 HW1           1 RES     
    5312 HW2          1.5654    22.1650   109.7610 HW2           1 RES     
    5313 OW          21.4954    14.7750    94.9870 OW            1 RES     
    5314 HW1         20.8334    14.6850    94.2430 HW1           1 RES     
    5315 HW2         21.9454    13.8950    95.1410 HW2           1 RES     
    5316 OW          31.4924    42.8010   101.0470 OW            1 RES     
    5317 HW1         31.3584    41.8110   101.0790 HW1           1 RES     
    5318 HW2         32.4714    43.0040   101.0210 HW2           1 RES     
    5319 OW          56.7084    48.5620   107.0510 OW            1 RES     
    5320 HW1         56.4704    47.6550   106.7050 HW1           1 RES     
    5321 HW2         55.8734    49.0590   107.2890 HW2           1 RES     
    5322 OW          25.6054    27.8960    94.6350 OW            1 RES     
    5323 HW1         25.6874    28.8310    94.2920 HW1           1 RES     
    5324 HW2         25.8614    27.2520    93.9130 HW2           1 RES     
    5325 OW          27.8454     5.8210   110.2850 OW            1 RES     
    5326 HW1         28.2034     6.6190   110.7700 HW1           1 RES     
    5327 HW2         27.6164     5.1050   110.9450 HW2           1 RES     
    5328 OW          11.1974     8.6870   104.3470 OW            1 RES     
    5329 HW1         12.1204     8.3540   104.1580 HW1           1 RES     
    5330 HW2         10.6284     7.9300   104.6700 HW2           1 RES     
    5331 OW          29.9714    40.6770    98.6860 OW            1 RES     
    5332 HW1         30.8204    40.7280    99.2110 HW1           1 RES     
    5333 HW2         29.9534    39.8250    98.1630 HW2           1 RES     
    5334 OW          22.6074    32.7580   105.7390 OW            1 RES     
    5335 HW1         23.5664    32.7760   106.0190 HW1           1 RES     
    5336 HW2         22.3784    33.6160   105.2770 HW2           1 RES     
    5337 OW          12.2454    33.7710    93.0990 OW            1 RES     
    5338 HW1         13.2174    33.9500    92.9550 HW1           1 RES     
    5339 HW2         11.7044    34.4900    92.6610 HW2           1 RES     
    5340 OW          48.6974    31.4990   101.1450 OW            1 RES     
    5341 HW1         47.8284    31.0210   101.0180 HW1           1 RES     
    5342 HW2         48.5364    32.4850   101.1660 HW2           1 RES     
    5343 OW           5.3104     9.0100    92.6430 OW            1 RES     
    5344 HW1          5.5124     8.5230    93.4920 HW1           1 RES     
    5345 HW2          5.9764     8.7510    91.9430 HW2           1 RES     
    5346 OW          56.2304     3.0060   109.2010 OW            1 RES     
    5347 HW1         55.2314     2.9980   109.2010 HW1           1 RES     
    5348 HW2         56.5724     2.0660   109.1990 HW2           1 RES     
    5349 OW          39.2304    21.0540   112.7300 OW            1 RES     
    5350 HW1         39.6524    20.6600   113.5460 HW1           1 RES     
    5351 HW2         38.2414    21.1200   112.8650 HW2           1 RES     
    5352 OW          43.8244    35.9680   104.8390 OW            1 RES     
    5353 HW1         44.3504    35.1360   104.6630 HW1           1 RES     
    5354 HW2         42.9854    35.7340   105.3300 HW2           1 RES     
    5355 OW          49.1444    16.7860    92.5510 OW            1 RES     
    5356 HW1         49.1744    17.7840    92.5070 HW1           1 RES     
    5357 HW2         48.3014    16.4980    93.0070 HW2           1 RES     
    5358 OW          16.3554    41.3890    97.9090 OW            1 RES     
    5359 HW1         17.0994    41.1380    98.5260 HW1           1 RES     
    5360 HW2         15.4774    41.2370    98.3640 HW2           1 RES     
    5361 OW          38.5324    27.9420   103.9250 OW            1 RES     
    5362 HW1         39.4834    27.9640   103.6180 HW1           1 RES     
    5363 HW2         37.9614    28.4490   103.2790 HW2           1 RES     
    5364 OW          19.5384    30.2680   113.6310 OW            1 RES     
    5365 HW1         20.1884    30.7950   113.0850 HW1           1 RES     
    5366 HW2         18.6264    30.6670   113.5420 HW2           1 RES     
    5367 OW          34.6464    24.6150   115.1170 OW            1 RES     
    5368 HW1         34.5744    25.4390   115.6790 HW1           1 RES     
    5369 HW2         35.5894    24.2840   115.1310 HW2           1 RES     
    5370 OW          38.6724    44.4240   109.2430 OW            1 RES     
    5371 HW1         38.3254    45.3220   108.9750 HW1           1 RES     
    5372 HW2         38.2004    43.7130   108.7200 HW2           1 RES     
    5373 OW          10.0284    18.7570    96.8570 OW            1 RES     
    5374 HW1         10.4484    18.3550    96.0440 HW1           1 RES     
    5375 HW2         10.7374    18.9530    97.5360 HW2           1 RES     
    5376 OW          48.4444     4.7800   105.6350 OW            1 RES     
    5377 HW1         48.6574     3.9680   105.0940 HW1           1 RES     
    5378 HW2         47.7284     5.3080   105.1790 HW2           1 RES     
    5379 OW          25.5284     1.6570   104.9580 OW            1 RES     
    5380 HW1         24.7294     2.2520   104.8840 HW1           1 RES     
    5381 HW2         25.5204     0.9930   104.2100 HW2           1 RES     
    5382 OW           9.6044    23.0110   112.2740 OW            1 RES     
    5383 HW1          9.4234    23.6780   111.5520 HW1           1 RES     
    5384 HW2          8.9164    22.2860   112.2390 HW2           1 RES     
    5385 OW          42.3844    43.0750    95.5630 OW            1 RES     
    5386 HW1         42.8834    43.7570    95.0290 HW1           1 RES     
    5387 HW2         42.4934    42.1760    95.1400 HW2           1 RES     
    5388 OW          46.0314     6.9550    90.8720 OW            1 RES     
    5389 HW1         45.4904     6.3000    90.3440 HW1           1 RES     
    5390 HW2         46.7244     7.3680    90.2810 HW2           1 RES     
    5391 OW          39.1294    19.0100   100.2810 OW            1 RES     
    5392 HW1         38.2964    19.5540   100.3720 HW1           1 RES     
    5393 HW2         38.8884    18.0450   100.1750 HW2           1 RES     
    5394 OW          56.6954    19.5340   110.1540 OW            1 RES     
    5395 HW1         56.5004    18.7360   109.5850 HW1           1 RES     
    5396 HW2         57.2364    19.2540   110.9480 HW2           1 RES     
    5397 OW          48.6484    43.7750   115.9640 OW            1 RES     
    5398 HW1         48.7244    44.6940   116.3510 HW1           1 RES     
    5399 HW2         47.7084    43.4480   116.0620 HW2           1 RES     
    5400 OW          25.3194    35.1060   111.1030 OW            1 RES     
    5401 HW1         26.2614    34.8250   110.9220 HW1           1 RES     
    5402 HW2         25.2614    35.5090   112.0170 HW2           1 RES     
    5403 OW           6.9494    20.5860   107.2020 OW            1 RES     
    5404 HW1          6.8274    19.6390   106.9060 HW1           1 RES     
    5405 HW2          6.2804    21.1690   106.7410 HW2           1 RES     
    5406 OW          20.2884     6.0600   107.7350 OW            1 RES     
    5407 HW1         21.0824     5.4590   107.6550 HW1           1 RES     
    5408 HW2         19.8534     6.1590   106.8400 HW2           1 RES     
    5409 OW          52.6484    17.8040    96.6080 OW            1 RES     
    5410 HW1         51.7764    17.7380    97.0900 HW1           1 RES     
    5411 HW2         52.4844    17.8170    95.6210 HW2           1 RES     
    5412 OW          55.6934     4.3140   113.1480 OW            1 RES     
    5413 HW1         54.7144     4.5070   113.2020 HW1           1 RES     
    5414 HW2         56.1944     5.1680   113.0070 HW2           1 RES     
    5415 OW           2.7574    45.9100    98.0920 OW            1 RES     
    5416 HW1          2.1894    45.3040    97.5360 HW1           1 RES     
    5417 HW2          2.5764    45.7420    99.0610 HW2           1 RES     
    5418 OW           1.0214    19.3920    91.7190 OW            1 RES     
    5419 HW1          0.0344    19.4120    91.5640 HW1           1 RES     
    5420 HW2          1.4784    19.9630    91.0370 HW2           1 RES     
    5421 OW          55.5034    45.6410   115.7180 OW            1 RES     
    5422 HW1         56.4794    45.8520   115.6830 HW1           1 RES     
    5423 HW2         54.9814    46.4100   115.3480 HW2           1 RES     
    5424 OW           6.9114    29.2090   112.2990 OW            1 RES     
    5425 HW1          6.4934    28.3050   112.3790 HW1           1 RES     
    5426 HW2          6.2764    29.8310   111.8410 HW2           1 RES     
    5427 OW          47.2434    12.5360    91.0700 OW            1 RES     
    5428 HW1         46.9984    13.2750    90.4440 HW1           1 RES     
    5429 HW2         46.4164    12.1810    91.5070 HW2           1 RES     
    5430 OW          52.7714    44.5090   110.2070 OW            1 RES     
    5431 HW1         53.3554    44.3000   110.9910 HW1           1 RES     
    5432 HW2         53.0734    43.9780   109.4150 HW2           1 RES     
    5433 OW          22.9034    22.1830    96.4600 OW            1 RES     
    5434 HW1         22.7914    21.3440    95.9290 HW1           1 RES     
    5435 HW2         23.7764    22.1540    96.9480 HW2           1 RES     
    5436 OW          34.0384    20.8950   109.7630 OW            1 RES     
    5437 HW1         33.2104    21.4490   109.8520 HW1           1 RES     
    5438 HW2         34.4514    21.0540   108.8660 HW2           1 RES     
    5439 OW          24.4584    30.4380    95.1840 OW            1 RES     
    5440 HW1         24.8804    30.6740    96.0590 HW1           1 RES     
    5441 HW2         24.0324    31.2520    94.7890 HW2           1 RES     
    5442 OW          34.9974    25.8440    93.3490 OW            1 RES     
    5443 HW1         35.8304    25.6710    92.8240 HW1           1 RES     
    5444 HW2         34.9194    26.8230    93.5360 HW2           1 RES     
    5445 OW          13.2144    48.8100   117.4650 OW            1 RES     
    5446 HW1         12.2824    49.1580   117.5560 HW1           1 RES     
    5447 HW2         13.1954    47.8110   117.4230 HW2           1 RES     
    5448 OW          10.9874     4.9310   105.6030 OW            1 RES     
    5449 HW1         11.2894     4.2430   104.9450 HW1           1 RES     
    5450 HW2         11.1794     5.8440   105.2430 HW2           1 RES     
    5451 OW          31.9954     2.1090   103.3060 OW            1 RES     
    5452 HW1         32.2014     1.3740   102.6610 HW1           1 RES     
    5453 HW2         31.9694     2.9830   102.8190 HW2           1 RES     
    5454 OW           5.3114    23.2560   113.1950 OW            1 RES     
    5455 HW1          4.9104    22.4150   113.5560 HW1           1 RES     
    5456 HW2          6.3094    23.1900   113.2240 HW2           1 RES     
    5457 OW          43.2614    38.2340    95.8130 OW            1 RES     
    5458 HW1         43.5284    38.1880    96.7750 HW1           1 RES     
    5459 HW2         42.8084    37.3810    95.5510 HW2           1 RES     
    5460 OW          41.8634    22.1630   109.3840 OW            1 RES     
    5461 HW1         42.2784    22.9240   109.8820 HW1           1 RES     
    5462 HW2         42.2074    22.1510   108.4450 HW2           1 RES     
    5463 OW          30.5614     9.4940   112.3790 OW            1 RES     
    5464 HW1         29.5874     9.2790   112.4450 HW1           1 RES     
    5465 HW2         31.0354     8.7500   111.9080 HW2           1 RES     
    5466 OW          44.5724    42.0620   103.6020 OW            1 RES     
    5467 HW1         44.0814    42.9230   103.7300 HW1           1 RES     
    5468 HW2         45.5184    42.2520   103.3390 HW2           1 RES     
    5469 OW          43.2704    31.4480    94.3760 OW            1 RES     
    5470 HW1         42.5044    31.7520    93.8100 HW1           1 RES     
    5471 HW2         44.0504    32.0580    94.2370 HW2           1 RES     
    5472 OW          10.7004    14.2800   110.1510 OW            1 RES     
    5473 HW1         10.8254    14.3980   109.1660 HW1           1 RES     
    5474 HW2         11.4864    14.6660   110.6350 HW2           1 RES     
    5475 OW           8.5564    46.5010   108.0970 OW            1 RES     
    5476 HW1          8.7404    45.5400   107.8920 HW1           1 RES     
    5477 HW2          7.5994    46.7070   107.8960 HW2           1 RES     
    5478 OW          44.3784    29.7140    96.2160 OW            1 RES     
    5479 HW1         44.4774    29.4220    97.1670 HW1           1 RES     
    5480 HW2         43.4084    29.8310    96.0020 HW2           1 RES     
    5481 OW          12.4794    31.9760   106.7260 OW            1 RES     
    5482 HW1         12.0164    32.7740   106.3410 HW1           1 RES     
    5483 HW2         11.9154    31.5800   107.4510 HW2           1 RES     
    5484 OW           4.6524     1.3920    91.5580 OW            1 RES     
    5485 HW1          5.3924     1.5610    90.9090 HW1           1 RES     
    5486 HW2          4.0674     0.6570    91.2140 HW2           1 RES     
    5487 OW          14.7774    45.0920   107.9140 OW            1 RES     
    5488 HW1         15.1734    46.0020   108.0360 HW1           1 RES     
    5489 HW2         13.7944    45.1760   107.7510 HW2           1 RES     
    5490 OW          55.4794    30.3910   110.0960 OW            1 RES     
    5491 HW1         54.7834    31.0630   110.3470 HW1           1 RES     
    5492 HW2         56.3564    30.8520   109.9650 HW2           1 RES     
    5493 OW          19.2524    20.8380   111.9540 OW            1 RES     
    5494 HW1         18.3444    20.4960   111.7160 HW1           1 RES     
    5495 HW2         19.6144    20.3180   112.7270 HW2           1 RES     
    5496 OW          27.9734    35.5860   115.6040 OW            1 RES     
    5497 HW1         27.3124    35.7150   116.3430 HW1           1 RES     
    5498 HW2         27.9814    34.6250   115.3270 HW2           1 RES     
    5499 OW          56.2824    44.9560    90.6710 OW            1 RES     
    5500 HW1         55.6754    45.7470    90.6010 HW1           1 RES     
    5501 HW2         57.2334    45.2570    90.5940 HW2           1 RES     
    5502 OW          43.5394    29.2000   111.2590 OW            1 RES     
    5503 HW1         44.4044    29.0640   110.7780 HW1           1 RES     
    5504 HW2         43.3794    30.1790   111.3890 HW2           1 RES     
    5505 OW          32.6174    44.1650   109.5810 OW            1 RES     
    5506 HW1         32.7474    45.1560   109.6050 HW1           1 RES     
    5507 HW2         33.4964    43.7180   109.4130 HW2           1 RES     
    5508 OW          27.7944    43.6030    96.6350 OW            1 RES     
    5509 HW1         28.7774    43.6590    96.4630 HW1           1 RES     
    5510 HW2         27.4254    42.7820    96.2000 HW2           1 RES     
    5511 OW          43.0724    32.2840   115.3090 OW            1 RES     
    5512 HW1         43.3794    32.5920   114.4090 HW1           1 RES     
    5513 HW2         43.7114    31.6010   115.6640 HW2           1 RES     
    5514 OW          39.4074    37.7020   111.1280 OW            1 RES     
    5515 HW1         40.0434    36.9310   111.1070 HW1           1 RES     
    5516 HW2         38.4684    37.3600   111.0940 HW2           1 RES     
    5517 OW          19.4704    32.4030    97.2510 OW            1 RES     
    5518 HW1         18.5564    32.0570    97.0430 HW1           1 RES     
    5519 HW2         19.6344    32.3440    98.2360 HW2           1 RES     
    5520 OW          22.7134    13.3520   105.0970 OW            1 RES     
    5521 HW1         23.2544    12.5170   105.1840 HW1           1 RES     
    5522 HW2         22.7484    13.6770   104.1510 HW2           1 RES     
    5523 OW           6.1094    36.8710    97.0400 OW            1 RES     
    5524 HW1          5.4654    36.2130    96.6520 HW1           1 RES     
    5525 HW2          5.7444    37.7960    96.9390 HW2           1 RES     
    5526 OW          35.5344    45.6010   105.0390 OW            1 RES     
    5527 HW1         34.9744    45.8490   105.8280 HW1           1 RES     
    5528 HW2         35.4334    46.2940   104.3250 HW2           1 RES     
    5529 OW          13.8544    17.4920    91.3940 OW            1 RES     
    5530 HW1         12.8704    17.3870    91.5310 HW1           1 RES     
    5531 HW2         14.0774    18.4630    91.3020 HW2           1 RES     
    5532 OW          11.6914     9.1990   111.0910 OW            1 RES     
    5533 HW1         10.9064     9.7420   110.7930 HW1           1 RES     
    5534 HW2         11.3794     8.2940   111.3810 HW2           1 RES     
    5535 OW          47.0454    40.4400   116.4600 OW            1 RES     
    5536 HW1         46.0934    40.7290   116.5590 HW1           1 RES     
    5537 HW2         47.1044    39.4460   116.5520 HW2           1 RES     
    5538 OW          16.3424    16.7690   105.3580 OW            1 RES     
    5539 HW1         17.2064    16.2680   105.3330 HW1           1 RES     
    5540 HW2         15.6324    16.2320   104.9020 HW2           1 RES     
    5541 OW           4.7534    34.6270   116.3250 OW            1 RES     
    5542 HW1          3.9884    35.2660   116.2560 HW1           1 RES     
    5543 HW2          4.5384    33.9200   117.0000 HW2           1 RES     
    5544 OW          48.4034    28.5550   116.4320 OW            1 RES     
    5545 HW1         48.2104    28.3960   115.4640 HW1           1 RES     
    5546 HW2         48.3114    27.6960   116.9350 HW2           1 RES     
    5547 OW           4.0344    16.8810    97.6620 OW            1 RES     
    5548 HW1          4.4354    17.7790    97.4880 HW1           1 RES     
    5549 HW2          3.0414    16.9310    97.5490 HW2           1 RES     
    5550 OW          38.9384    24.2690   101.7800 OW            1 RES     
    5551 HW1         38.5144    25.0180   101.2720 HW1           1 RES     
    5552 HW2         39.5174    24.6440   102.5050 HW2           1 RES     
    5553 OW          26.0954    16.1260   109.9840 OW            1 RES     
    5554 HW1         26.7264    16.3990   110.7100 HW1           1 RES     
    5555 HW2         25.1904    16.5100   110.1660 HW2           1 RES     
    5556 OW          44.3414     9.5860    98.3040 OW            1 RES     
    5557 HW1         44.0124     9.8830    99.2000 HW1           1 RES     
    5558 HW2         44.9974    10.2530    97.9510 HW2           1 RES     
    5559 OW          52.4214    24.2690   110.3940 OW            1 RES     
    5560 HW1         53.0884    24.9230   110.0370 HW1           1 RES     
    5561 HW2         52.8894    23.4280   110.6640 HW2           1 RES     
    5562 OW          44.9754    40.4880   110.0450 OW            1 RES     
    5563 HW1         44.1574    39.9170   110.1060 HW1           1 RES     
    5564 HW2         44.7074    41.4370   109.8740 HW2           1 RES     
    5565 OW          42.3594    12.0620   102.0110 OW            1 RES     
    5566 HW1         42.4044    11.1500   102.4190 HW1           1 RES     
    5567 HW2         41.6954    12.0610   101.2630 HW2           1 RES     
    5568 OW          55.3854    24.4250    92.9270 OW            1 RES     
    5569 HW1         54.6724    23.7430    93.0900 HW1           1 RES     
    5570 HW2         56.2084    23.9720    92.5850 HW2           1 RES     
    5571 OW          13.1444    21.2360   104.7580 OW            1 RES     
    5572 HW1         13.9654    21.8050   104.7530 HW1           1 RES     
    5573 HW2         13.4034    20.2770   104.8810 HW2           1 RES     
    5574 OW          44.8034    11.0010   103.4850 OW            1 RES     
    5575 HW1         44.0384    10.4040   103.7260 HW1           1 RES     
    5576 HW2         44.5914    11.9410   103.7570 HW2           1 RES     
    5577 OW           0.2914    16.5630    96.8990 OW            1 RES     
    5578 HW1          0.4694    17.5290    96.7140 HW1           1 RES     
    5579 HW2          0.0034    16.4530    97.8510 HW2           1 RES     
    5580 OW          41.1644    42.4460    98.3110 OW            1 RES     
    5581 HW1         40.7244    41.5840    98.5610 HW1           1 RES     
    5582 HW2         40.4754    43.0860    97.9710 HW2           1 RES     
    5583 OW           9.4094    19.5930    92.5100 OW            1 RES     
    5584 HW1         10.0464    18.8230    92.5120 HW1           1 RES     
    5585 HW2          9.9234    20.4510    92.5110 HW2           1 RES     
    5586 OW          56.9684    21.8480   108.1610 OW            1 RES     
    5587 HW1         56.6154    20.9550   108.4370 HW1           1 RES     
    5588 HW2         56.9294    21.9300   107.1640 HW2           1 RES     
    5589 OW          43.9454    38.4740   105.3040 OW            1 RES     
    5590 HW1         43.7074    39.4440   105.2830 HW1           1 RES     
    5591 HW2         43.9614    38.1130   104.3710 HW2           1 RES     
    5592 OW          27.1294    23.2860   110.1540 OW            1 RES     
    5593 HW1         27.5994    24.1480   110.3380 HW1           1 RES     
    5594 HW2         26.2364    23.4720   109.7450 HW2           1 RES     
    5595 OW          16.9904     9.7770   101.2240 OW            1 RES     
    5596 HW1         16.1964    10.3760   101.1290 HW1           1 RES     
    5597 HW2         16.6864     8.8260   101.2810 HW2           1 RES     
    5598 OW          15.1994    34.8110   116.4850 OW            1 RES     
    5599 HW1         15.9184    34.2440   116.0850 HW1           1 RES     
    5600 HW2         15.0674    34.5570   117.4430 HW2           1 RES     
    5601 OW          27.5084    10.0680   104.6130 OW            1 RES     
    5602 HW1         28.3744     9.6640   104.9080 HW1           1 RES     
    5603 HW2         26.8174     9.3500   104.5290 HW2           1 RES     
    5604 OW           3.7714     7.7580   115.2940 OW            1 RES     
    5605 HW1          4.3434     6.9390   115.3010 HW1           1 RES     
    5606 HW2          2.8064     7.4920   115.2890 HW2           1 RES     
    5607 OW          45.5284    39.9180    91.5830 OW            1 RES     
    5608 HW1         45.8224    39.0190    91.2590 HW1           1 RES     
    5609 HW2         44.6084    39.8480    91.9690 HW2           1 RES     
    5610 OW           5.5394    47.6870    90.6800 OW            1 RES     
    5611 HW1          5.7994    48.6520    90.6860 HW1           1 RES     
    5612 HW2          4.5424    47.6100    90.6880 HW2           1 RES     
    5613 OW          29.5414    45.9690    91.5720 OW            1 RES     
    5614 HW1         29.8994    46.8750    91.3490 HW1           1 RES     
    5615 HW2         28.6144    46.0570    91.9360 HW2           1 RES     
    5616 OW           5.5844    33.3390    92.3580 OW            1 RES     
    5617 HW1          5.9864    34.2460    92.2340 HW1           1 RES     
    5618 HW2          4.6014    33.3820    92.1770 HW2           1 RES     
    5619 OW          51.2074    10.3550   106.8400 OW            1 RES     
    5620 HW1         51.2324    11.3490   106.7390 HW1           1 RES     
    5621 HW2         51.3064    10.1150   107.8050 HW2           1 RES     
    5622 OW          32.1774    40.6760    91.7530 OW            1 RES     
    5623 HW1         32.2544    41.1000    92.6550 HW1           1 RES     
    5624 HW2         31.2704    40.2680    91.6520 HW2           1 RES     
    5625 OW          39.0254    45.0430    99.6070 OW            1 RES     
    5626 HW1         38.9594    45.9490   100.0230 HW1           1 RES     
    5627 HW2         39.9744    44.8640    99.3440 HW2           1 RES     
    5628 OW           4.1584    28.4610   106.3980 OW            1 RES     
    5629 HW1          3.2774    28.0070   106.5280 HW1           1 RES     
    5630 HW2          4.8194    27.8090   106.0270 HW2           1 RES     
    5631 OW          11.5894    36.6910    91.9510 OW            1 RES     
    5632 HW1         11.3874    36.1770    91.1180 HW1           1 RES     
    5633 HW2         11.3454    37.6520    91.8170 HW2           1 RES     
    5634 OW          23.3584    43.4140   110.1130 OW            1 RES     
    5635 HW1         24.0324    42.6760   110.0910 HW1           1 RES     
    5636 HW2         22.5054    43.1000   109.6950 HW2           1 RES     
    5637 OW          17.8894     0.0020   107.3410 OW            1 RES     
    5638 HW1         17.0054     0.2020   106.9190 HW1           1 RES     
    5639 HW2         18.6234     0.3630   106.7640 HW2           1 RES     
    5640 OW          34.5014    32.4790   107.8560 OW            1 RES     
    5641 HW1         33.5584    32.7730   107.7050 HW1           1 RES     
    5642 HW2         34.6024    31.5250   107.5740 HW2           1 RES     
    5643 OW           2.7814     2.5510   108.7440 OW            1 RES     
    5644 HW1          1.8784     2.8930   109.0000 HW1           1 RES     
    5645 HW2          2.7634     2.2410   107.7930 HW2           1 RES     
    5646 OW           5.8644    10.3340    98.0180 OW            1 RES     
    5647 HW1          6.2954    10.2040    97.1260 HW1           1 RES     
    5648 HW2          6.5444    10.2050    98.7400 HW2           1 RES     
    5649 OW          39.1394    47.1740    95.1900 OW            1 RES     
    5650 HW1         38.5614    46.7910    95.9090 HW1           1 RES     
    5651 HW2         39.7204    46.4550    94.8090 HW2           1 RES     
    5652 OW          29.7044    37.4100    98.8500 OW            1 RES     
    5653 HW1         29.6314    36.5110    99.2790 HW1           1 RES     
    5654 HW2         30.3824    37.9590    99.3390 HW2           1 RES     
    5655 OW          17.4174    40.3010   117.0200 OW            1 RES     
    5656 HW1         18.3834    40.0470   117.0560 HW1           1 RES     
    5657 HW2         17.3354    41.2940   116.9400 HW2           1 RES     
    5658 OW          28.6074    39.5240   102.9680 OW            1 RES     
    5659 HW1         27.7554    39.0430   103.1750 HW1           1 RES     
    5660 HW2         29.3694    39.0650   103.4260 HW2           1 RES     
    5661 OW           3.4504    43.9030   102.1610 OW            1 RES     
    5662 HW1          4.3294    43.8970   102.6370 HW1           1 RES     
    5663 HW2          3.4444    43.1860   101.4640 HW2           1 RES     
    5664 OW          44.2364    10.4750   112.5950 OW            1 RES     
    5665 HW1         44.2404     9.4800   112.6900 HW1           1 RES     
    5666 HW2         43.3004    10.8160   112.6870 HW2           1 RES     
    5667 OW          13.6824    46.3660   101.6290 OW            1 RES     
    5668 HW1         13.0014    47.0840   101.4900 HW1           1 RES     
    5669 HW2         13.3374    45.7040   102.2950 HW2           1 RES     
    5670 OW          25.5754     5.9660    93.3380 OW            1 RES     
    5671 HW1         24.6744     5.5970    93.1110 HW1           1 RES     
    5672 HW2         26.2644     5.5550    92.7410 HW2           1 RES     
    5673 OW          14.9984    24.4320    95.2530 OW            1 RES     
    5674 HW1         15.7884    23.8360    95.3910 HW1           1 RES     
    5675 HW2         15.3054    25.3800    95.1710 HW2           1 RES     
    5676 OW          39.1964    21.2380   105.4110 OW            1 RES     
    5677 HW1         38.9314    21.2150   106.3740 HW1           1 RES     
    5678 HW2         38.4194    20.9610   104.8440 HW2           1 RES     
    5679 OW          42.7144    26.5560    92.3280 OW            1 RES     
    5680 HW1         43.2924    26.5070    91.5140 HW1           1 RES     
    5681 HW2         41.7544    26.6060    92.0530 HW2           1 RES     
    5682 OW          48.8884    16.7690   104.5980 OW            1 RES     
    5683 HW1         48.5134    15.8620   104.4070 HW1           1 RES     
    5684 HW2         49.8774    16.7000   104.7320 HW2           1 RES     
    5685 OW          49.9744    35.2870    94.0380 OW            1 RES     
    5686 HW1         49.7814    35.8890    94.8130 HW1           1 RES     
    5687 HW2         50.8724    35.5110    93.6580 HW2           1 RES     
    5688 OW          18.6334    10.2200    95.8850 OW            1 RES     
    5689 HW1         18.2584     9.6490    96.6150 HW1           1 RES     
    5690 HW2         17.8914    10.7150    95.4330 HW2           1 RES     
    5691 OW           9.8214     3.3450   113.7790 OW            1 RES     
    5692 HW1         10.2504     2.4880   114.0600 HW1           1 RES     
    5693 HW2          9.0624     3.1510   113.1560 HW2           1 RES     
    5694 OW          35.8344    32.2030   109.6160 OW            1 RES     
    5695 HW1         36.8084    32.3800   109.4760 HW1           1 RES     
    5696 HW2         35.7214    31.3980   110.1980 HW2           1 RES     
    5697 OW          35.9844    10.0660   100.8020 OW            1 RES     
    5698 HW1         35.0904     9.6610   100.6120 HW1           1 RES     
    5699 HW2         35.9694    10.5030   101.7010 HW2           1 RES     
    5700 OW          51.1934     3.8880   111.3120 OW            1 RES     
    5701 HW1         50.3724     4.0530   111.8590 HW1           1 RES     
    5702 HW2         51.5674     4.7610   110.9990 HW2           1 RES     
    5703 OW          43.4494    44.3850   110.6360 OW            1 RES     
    5704 HW1         44.0194    43.9040   109.9710 HW1           1 RES     
    5705 HW2         44.0324    44.8660   111.2900 HW2           1 RES     
    5706 OW          37.4564    16.0850   108.6320 OW            1 RES     
    5707 HW1         37.2064    15.8350   107.6970 HW1           1 RES     
    5708 HW2         36.6464    16.0390   109.2180 HW2           1 RES     
    5709 OW          38.6854    25.3620   115.4020 OW            1 RES     
    5710 HW1         39.4654    24.8210   115.0900 HW1           1 RES     
    5711 HW2         37.8914    25.1680   114.8260 HW2           1 RES     
    5712 OW          22.5664    48.3530    92.7640 OW            1 RES     
    5713 HW1         23.4064    47.8920    93.0450 HW1           1 RES     
    5714 HW2         21.8274    47.6840    92.6850 HW2           1 RES     
    5715 OW          50.6814     9.7350    93.3300 OW            1 RES     
    5716 HW1         50.9494     8.7840    93.4800 HW1           1 RES     
    5717 HW2         50.9634    10.0210    92.4140 HW2           1 RES     
    5718 OW          45.1874    21.6530   106.1950 OW            1 RES     
    5719 HW1         44.1894    21.6610   106.2370 HW1           1 RES     
    5720 HW2         45.5044    20.7340   105.9600 HW2           1 RES     
    5721 OW          40.0954    21.8000    95.9130 OW            1 RES     
    5722 HW1         40.7514    21.1070    95.6140 HW1           1 RES     
    5723 HW2         39.3764    21.8980    95.2240 HW2           1 RES     
    5724 OW          53.0454     9.1630   109.2840 OW            1 RES     
    5725 HW1         52.1034     8.9460   109.5370 HW1           1 RES     
    5726 HW2         53.1364    10.1500   109.1520 HW2           1 RES     
    5727 OW          26.0344     3.9780   109.5600 OW            1 RES     
    5728 HW1         25.5794     4.8370   109.7920 HW1           1 RES     
    5729 HW2         26.8164     4.1640   108.9650 HW2           1 RES     
    5730 OW          14.0304    14.5490    92.4450 OW            1 RES     
    5731 HW1         13.7184    15.4920    92.5550 HW1           1 RES     
    5732 HW2         15.0184    14.5050    92.5930 HW2           1 RES     
    5733 OW          22.8684    47.0900    98.0290 OW            1 RES     
    5734 HW1         23.4274    46.7170    98.7680 HW1           1 RES     
    5735 HW2         23.1694    48.0200    97.8190 HW2           1 RES     
    5736 OW          33.0344     6.2380    92.2800 OW            1 RES     
    5737 HW1         33.7664     5.8930    92.8680 HW1           1 RES     
    5738 HW2         32.6894     7.1020    92.6480 HW2           1 RES     
    5739 OW          39.4164    35.5890   107.3330 OW            1 RES     
    5740 HW1         39.4074    36.4780   106.8760 HW1           1 RES     
    5741 HW2         39.9834    35.6420   108.1550 HW2           1 RES     
    5742 OW          30.7464    44.8570   115.6810 OW            1 RES     
    5743 HW1         30.0464    44.1460   115.7320 HW1           1 RES     
    5744 HW2         30.3114    45.7570   115.7120 HW2           1 RES     
    5745 OW           0.9604    22.9120    90.3910 OW            1 RES     
    5746 HW1          1.0024    23.9050    90.2810 HW1           1 RES     
    5747 HW2          0.0054    22.6240    90.4590 HW2           1 RES     
    5748 OW          41.2234    34.0980   104.5640 OW            1 RES     
    5749 HW1         40.4184    33.5520   104.3340 HW1           1 RES     
    5750 HW2         40.9724    35.0650   104.5990 HW2           1 RES     
    5751 OW          56.6744    20.4560    95.4640 OW            1 RES     
    5752 HW1         56.3884    20.9550    96.2810 HW1           1 RES     
    5753 HW2         55.9754    19.7820    95.2220 HW2           1 RES     
    5754 OW          49.6624    26.3040    93.0910 OW            1 RES     
    5755 HW1         49.3384    26.9730    93.7590 HW1           1 RES     
    5756 HW2         50.3144    26.7400    92.4700 HW2           1 RES     
    5757 OW          18.7474    35.1560   101.9520 OW            1 RES     
    5758 HW1         19.0194    36.1150   102.0240 HW1           1 RES     
    5759 HW2         19.5454    34.5710   102.1000 HW2           1 RES     
    5760 OW          46.1954    43.6550    92.8410 OW            1 RES     
    5761 HW1         46.1154    44.5950    92.5120 HW1           1 RES     
    5762 HW2         45.2844    43.2460    92.9080 HW2           1 RES     
    5763 OW          32.6594    15.6860    94.3560 OW            1 RES     
    5764 HW1         31.7174    15.4410    94.1310 HW1           1 RES     
    5765 HW2         32.6644    16.3220    95.1280 HW2           1 RES     
    5766 OW          19.0984     1.2240   101.6580 OW            1 RES     
    5767 HW1         18.5734     0.5780   102.2110 HW1           1 RES     
    5768 HW2         18.9864     2.1470   102.0270 HW2           1 RES     
    5769 OW          27.6944    32.7010   100.1430 OW            1 RES     
    5770 HW1         28.4824    32.4170   100.6880 HW1           1 RES     
    5771 HW2         27.9604    33.4480    99.5340 HW2           1 RES     
    5772 OW          11.2274     1.1750   103.3840 OW            1 RES     
    5773 HW1         11.3844     0.3150   102.8980 HW1           1 RES     
    5774 HW2         11.4404     1.0540   104.3540 HW2           1 RES     
    5775 OW          40.7044    32.9220   109.1470 OW            1 RES     
    5776 HW1         40.4534    32.1860   109.7750 HW1           1 RES     
    5777 HW2         40.0374    33.6640   109.2180 HW2           1 RES     
    5778 OW          54.4614    35.9900   111.4330 OW            1 RES     
    5779 HW1         55.2224    35.5850   110.9280 HW1           1 RES     
    5780 HW2         54.4194    35.5930   112.3500 HW2           1 RES     
    5781 OW          49.3944    24.7840   113.2870 OW            1 RES     
    5782 HW1         48.4064    24.6330   113.2690 HW1           1 RES     
    5783 HW2         49.5914    25.6550   113.7370 HW2           1 RES     
    5784 OW          33.2394    10.8830   107.0920 OW            1 RES     
    5785 HW1         33.6554     9.9780   107.1680 HW1           1 RES     
    5786 HW2         33.8484    11.4880   106.5790 HW2           1 RES     
    5787 OW          35.8104    14.2060   102.6980 OW            1 RES     
    5788 HW1         36.5874    13.5870   102.5930 HW1           1 RES     
    5789 HW2         34.9604    13.6780   102.6960 HW2           1 RES     
    5790 OW          21.2074     8.1140   115.2710 OW            1 RES     
    5791 HW1         22.1304     8.4980   115.2510 HW1           1 RES     
    5792 HW2         21.2614     7.1160   115.2670 HW2           1 RES     
    5793 OW          42.2944    28.7830   105.0750 OW            1 RES     
    5794 HW1         41.9244    28.0720   105.6710 HW1           1 RES     
    5795 HW2         41.9194    28.6750   104.1540 HW2           1 RES     
    5796 OW          13.9454    13.1720   107.4130 OW            1 RES     
    5797 HW1         14.6144    13.6220   108.0030 HW1           1 RES     
    5798 HW2         13.7604    12.2520   107.7570 HW2           1 RES     
    5799 OW          12.4264    46.6460    95.6860 OW            1 RES     
    5800 HW1         11.4544    46.7490    95.8980 HW1           1 RES     
    5801 HW2         12.6214    45.6890    95.4730 HW2           1 RES     
    5802 OW          30.0574    18.2390   106.1480 OW            1 RES     
    5803 HW1         29.8524    19.1750   105.8630 HW1           1 RES     
    5804 HW2         29.3264    17.6290   105.8410 HW2           1 RES     
    5805 OW          43.1604    20.6070   100.1620 OW            1 RES     
    5806 HW1         42.3374    20.1630   100.5160 HW1           1 RES     
    5807 HW2         43.8004    19.9110    99.8360 HW2           1 RES     
    5808 OW          20.0514    35.3770    93.2670 OW            1 RES     
    5809 HW1         19.7094    35.9150    92.4980 HW1           1 RES     
    5810 HW2         20.8854    34.8970    92.9940 HW2           1 RES     
    5811 OW           9.5124    28.8930   112.9930 OW            1 RES     
    5812 HW1          8.9314    28.1500   112.6620 HW1           1 RES     
    5813 HW2          9.0004    29.4520   113.6460 HW2           1 RES     
    5814 OW          46.1584     3.7670   110.5270 OW            1 RES     
    5815 HW1         46.7294     4.2260   109.8470 HW1           1 RES     
    5816 HW2         46.7384     3.2420   111.1500 HW2           1 RES     
    5817 OW          44.9394     4.1640   115.0730 OW            1 RES     
    5818 HW1         45.9164     4.3610   115.0070 HW1           1 RES     
    5819 HW2         44.4224     5.0190   115.0240 HW2           1 RES     
    5820 OW          40.0754    19.3000   106.2000 OW            1 RES     
    5821 HW1         40.0404    19.3500   107.1980 HW1           1 RES     
    5822 HW2         40.1194    18.3420   105.9160 HW2           1 RES     
    5823 OW          18.6284    44.7260   116.5090 OW            1 RES     
    5824 HW1         18.2194    45.3470   115.8410 HW1           1 RES     
    5825 HW2         19.6254    44.7600   116.4300 HW2           1 RES     
    5826 OW          14.9104    28.1060   108.2820 OW            1 RES     
    5827 HW1         14.6154    28.7520   107.5780 HW1           1 RES     
    5828 HW2         14.1424    27.5180   108.5380 HW2           1 RES     
    5829 OW          47.7524    39.0470   102.7090 OW            1 RES     
    5830 HW1         47.7954    39.8710   102.1450 HW1           1 RES     
    5831 HW2         48.4304    38.3870   102.3880 HW2           1 RES     
    5832 OW          13.4154    11.9020   104.7210 OW            1 RES     
    5833 HW1         14.0214    12.6600   104.9610 HW1           1 RES     
    5834 HW2         12.5944    11.9370   105.2920 HW2           1 RES     
    5835 OW           2.4154     4.2880    91.2980 OW            1 RES     
    5836 HW1          2.3994     4.0770    92.2750 HW1           1 RES     
    5837 HW2          3.3514     4.5030    91.0190 HW2           1 RES     
    5838 OW           4.0744    45.8650   106.3120 OW            1 RES     
    5839 HW1          3.5354    45.0250   106.2640 HW1           1 RES     
    5840 HW2          3.4924    46.6480   106.0940 HW2           1 RES     
    5841 OW           8.2224    19.8320    94.9920 OW            1 RES     
    5842 HW1          9.1544    20.1790    94.8910 HW1           1 RES     
    5843 HW2          7.5754    20.4960    94.6160 HW2           1 RES     
    5844 OW          40.9884     8.8320   107.1440 OW            1 RES     
    5845 HW1         41.6084     9.1120   106.4120 HW1           1 RES     
    5846 HW2         40.9084     9.5700   107.8140 HW2           1 RES     
    5847 OW          39.1434    23.5710   108.7920 OW            1 RES     
    5848 HW1         38.4414    23.0180   108.3440 HW1           1 RES     
    5849 HW2         38.7104    24.3290   109.2800 HW2           1 RES     
    5850 OW          32.0294    19.8830    94.9960 OW            1 RES     
    5851 HW1         31.7834    18.9180    95.0870 HW1           1 RES     
    5852 HW2         33.0064    19.9960    95.1770 HW2           1 RES     
    5853 OW          52.5074    22.3890   101.6230 OW            1 RES     
    5854 HW1         53.1454    21.6220   101.6770 HW1           1 RES     
    5855 HW2         52.8404    23.0550   100.9550 HW2           1 RES     
    5856 OW          22.4544     8.0160    99.3270 OW            1 RES     
    5857 HW1         22.1374     7.4320   100.0730 HW1           1 RES     
    5858 HW2         21.6724     8.4760    98.9070 HW2           1 RES     
    5859 OW          42.3934    16.3120   100.4670 OW            1 RES     
    5860 HW1         43.1944    16.7250   100.0350 HW1           1 RES     
    5861 HW2         41.6444    16.9750   100.4850 HW2           1 RES     
    5862 OW          47.2324    24.4830    93.7710 OW            1 RES     
    5863 HW1         48.2124    24.6450    93.6550 HW1           1 RES     
    5864 HW2         46.7294    25.3260    93.5780 HW2           1 RES     
    5865 OW          55.5654     8.0700    99.9300 OW            1 RES     
    5866 HW1         56.4604     7.7320   100.2190 HW1           1 RES     
    5867 HW2         55.3664     8.9300   100.3990 HW2           1 RES     
    5868 OW          12.4104     5.9600   112.2140 OW            1 RES     
    5869 HW1         12.7554     6.8740   112.4250 HW1           1 RES     
    5870 HW2         11.4164     5.9940   112.1100 HW2           1 RES     
    5871 OW          27.3194    42.4800    94.0200 OW            1 RES     
    5872 HW1         26.4084    42.7970    93.7590 HW1           1 RES     
    5873 HW2         27.5464    41.6530    93.5050 HW2           1 RES     
    5874 OW          13.6004    17.2690   116.3980 OW            1 RES     
    5875 HW1         12.8904    16.5860   116.5660 HW1           1 RES     
    5876 HW2         14.2174    17.3100   117.1840 HW2           1 RES     
    5877 OW          22.0644    46.5490   116.6450 OW            1 RES     
    5878 HW1         21.5734    46.7400   115.7950 HW1           1 RES     
    5879 HW2         21.5344    45.9060   117.1990 HW2           1 RES     
    5880 OW          54.4644    10.9600   116.4320 OW            1 RES     
    5881 HW1         54.2604     9.9820   116.4440 HW1           1 RES     
    5882 HW2         53.6104    11.4800   116.4580 HW2           1 RES     
    5883 OW          11.0224    26.4070    92.6170 OW            1 RES     
    5884 HW1         12.0144    26.2880    92.5990 HW1           1 RES     
    5885 HW2         10.8034    27.3830    92.6150 HW2           1 RES     
    5886 OW          49.6714    24.3330   103.6650 OW            1 RES     
    5887 HW1         48.7544    24.7310   103.6590 HW1           1 RES     
    5888 HW2         50.3534    25.0650   103.6850 HW2           1 RES     
    5889 OW          26.4204     2.7230   100.7040 OW            1 RES     
    5890 HW1         25.9384     3.5660   100.9400 HW1           1 RES     
    5891 HW2         26.5744     2.1830   101.5320 HW2           1 RES     
    5892 OW          55.3134    14.4820   115.7680 OW            1 RES     
    5893 HW1         54.7044    14.0940   116.4590 HW1           1 RES     
    5894 HW2         55.3984    15.4680   115.9130 HW2           1 RES     
    5895 OW           7.4894    13.9630    94.7700 OW            1 RES     
    5896 HW1          6.7784    14.6650    94.7790 HW1           1 RES     
    5897 HW2          8.3304    14.3440    94.3850 HW2           1 RES     
    5898 OW           5.4654    12.3650   105.3530 OW            1 RES     
    5899 HW1          4.4874    12.1920   105.2470 HW1           1 RES     
    5900 HW2          5.9234    12.2460   104.4720 HW2           1 RES     
    5901 OW          54.8944     0.4720    98.5530 OW            1 RES     
    5902 HW1         54.1794     0.7960    97.9340 HW1           1 RES     
    5903 HW2         55.7734     0.8660    98.2820 HW2           1 RES     
    5904 OW          32.9294    25.0070   112.5600 OW            1 RES     
    5905 HW1         32.1444    25.1940   111.9710 HW1           1 RES     
    5906 HW2         33.1474    24.0320   112.5260 HW2           1 RES     
    5907 OW           9.0364     7.5810    91.0180 OW            1 RES     
    5908 HW1          9.4314     6.6690    91.1220 HW1           1 RES     
    5909 HW2          9.7684     8.2490    90.8830 HW2           1 RES     
    5910 OW           4.0414     3.9220   100.4700 OW            1 RES     
    5911 HW1          3.8104     4.8810   100.6310 HW1           1 RES     
    5912 HW2          3.2154     3.4170   100.2200 HW2           1 RES     
    5913 OW           4.0874    36.2740   101.1170 OW            1 RES     
    5914 HW1          4.1664    36.5270   100.1530 HW1           1 RES     
    5915 HW2          3.4584    35.5020   101.2090 HW2           1 RES     
    5916 OW           7.8184    12.5640    97.9100 OW            1 RES     
    5917 HW1          7.8744    13.1630    98.7080 HW1           1 RES     
    5918 HW2          6.8694    12.2780    97.7740 HW2           1 RES     
    5919 OW          41.5674    23.9610    93.7790 OW            1 RES     
    5920 HW1         40.8734    23.2800    94.0090 HW1           1 RES     
    5921 HW2         42.4714    23.5320    93.7840 HW2           1 RES     
    5922 OW          28.4874    45.6430   117.1310 OW            1 RES     
    5923 HW1         27.6254    46.0880   116.8870 HW1           1 RES     
    5924 HW2         29.1274    46.3270   117.4840 HW2           1 RES     
    5925 OW          16.7944    12.9860   108.0470 OW            1 RES     
    5926 HW1         17.1684    13.3360   107.1880 HW1           1 RES     
    5927 HW2         16.8064    11.9860   108.0330 HW2           1 RES     
    5928 OW          13.2594    21.1550   111.1680 OW            1 RES     
    5929 HW1         13.3164    20.4480   111.8710 HW1           1 RES     
    5930 HW2         13.4804    22.0440   111.5690 HW2           1 RES     
    5931 OW          37.4354     5.8990    97.5100 OW            1 RES     
    5932 HW1         38.4104     6.1090    97.5780 HW1           1 RES     
    5933 HW2         37.2594     5.4050    96.6580 HW2           1 RES     
    5934 OW           0.9524    41.8210   100.5500 OW            1 RES     
    5935 HW1          0.6494    41.9800    99.6110 HW1           1 RES     
    5936 HW2          0.9284    40.8410   100.7470 HW2           1 RES     
    5937 OW          28.4494     2.9110   104.5380 OW            1 RES     
    5938 HW1         28.2094     3.8670   104.7030 HW1           1 RES     
    5939 HW2         27.6164     2.3590   104.4960 HW2           1 RES     
    5940 OW          16.7554    21.8480    94.5290 OW            1 RES     
    5941 HW1         17.1034    20.9640    94.2190 HW1           1 RES     
    5942 HW2         15.8344    21.9900    94.1670 HW2           1 RES     
    5943 OW          35.5684    37.8560   114.6450 OW            1 RES     
    5944 HW1         36.3074    38.1730   114.0520 HW1           1 RES     
    5945 HW2         35.9464    37.5720   115.5270 HW2           1 RES     
    5946 OW          45.9664    17.8270   116.4900 OW            1 RES     
    5947 HW1         45.1384    17.2910   116.6490 HW1           1 RES     
    5948 HW2         45.7274    18.7940   116.4030 HW2           1 RES     
    5949 OW          28.0574    18.7290   101.6220 OW            1 RES     
    5950 HW1         28.5784    18.5660   100.7850 HW1           1 RES     
    5951 HW2         27.5304    19.5740   101.5290 HW2           1 RES     
    5952 OW          29.3824    44.0010   100.5220 OW            1 RES     
    5953 HW1         30.0074    44.7270   100.2360 HW1           1 RES     
    5954 HW2         29.4284    43.2450    99.8680 HW2           1 RES     
    5955 OW          25.9344     5.9000   115.2910 OW            1 RES     
    5956 HW1         26.0344     5.2120   114.5730 HW1           1 RES     
    5957 HW2         26.1584     6.8020   114.9220 HW2           1 RES     
    5958 OW          16.9924     2.9150   110.2700 OW            1 RES     
    5959 HW1         16.7924     3.8790   110.0980 HW1           1 RES     
    5960 HW2         17.9604     2.8090   110.4960 HW2           1 RES     
    5961 OW           8.1924    39.1760    93.0320 OW            1 RES     
    5962 HW1          8.8734    38.5700    93.4400 HW1           1 RES     
    5963 HW2          8.0224    38.9000    92.0860 HW2           1 RES     
    5964 OW           0.8004    36.9610    94.8840 OW            1 RES     
    5965 HW1          0.4844    36.2710    94.2340 HW1           1 RES     
    5966 HW2          1.5934    37.4380    94.5050 HW2           1 RES     
    5967 OW          11.0164    42.4120    91.0510 OW            1 RES     
    5968 HW1         10.4854    41.5660    91.0080 HW1           1 RES     
    5969 HW2         11.5334    42.4380    91.9060 HW2           1 RES     
    5970 OW          12.4644    29.9650   100.2420 OW            1 RES     
    5971 HW1         11.4744    29.8850   100.3530 HW1           1 RES     
    5972 HW2         12.9204    29.2670   100.7950 HW2           1 RES     
    5973 OW          40.3644    38.6850    92.1470 OW            1 RES     
    5974 HW1         40.7104    39.3030    91.4410 HW1           1 RES     
    5975 HW2         39.3974    38.8780    92.3140 HW2           1 RES     
    5976 OW          52.6604    38.4300    97.1630 OW            1 RES     
    5977 HW1         51.9894    38.4810    97.9020 HW1           1 RES     
    5978 HW2         52.6454    39.2820    96.6390 HW2           1 RES     
    5979 OW          16.9214    43.6350   103.5200 OW            1 RES     
    5980 HW1         17.5014    43.9720   102.7790 HW1           1 RES     
    5981 HW2         16.0304    44.0870   103.4790 HW2           1 RES     
    5982 OW          45.3704     4.6960   103.6390 OW            1 RES     
    5983 HW1         45.6514     4.3670   104.5410 HW1           1 RES     
    5984 HW2         46.0384     5.3600   103.3040 HW2           1 RES     
    5985 OW          14.7274    31.5690   111.5790 OW            1 RES     
    5986 HW1         15.4114    32.2810   111.7340 HW1           1 RES     
    5987 HW2         14.2874    31.7160   110.6930 HW2           1 RES     
    5988 OW          41.5474    16.4880   108.8100 OW            1 RES     
    5989 HW1         41.8764    16.9220   107.9730 HW1           1 RES     
    5990 HW2         40.9304    15.7360   108.5760 HW2           1 RES     
    5991 OW          40.4024    47.7250   107.0000 OW            1 RES     
    5992 HW1         39.5164    47.2960   106.8280 HW1           1 RES     
    5993 HW2         41.0824    47.0190   107.2010 HW2           1 RES     
    5994 OW          36.0134    27.1690   114.0590 OW            1 RES     
    5995 HW1         35.8394    26.1850   114.0410 HW1           1 RES     
    5996 HW2         36.9914    27.3380   113.9420 HW2           1 RES     
    5997 OW          34.0124    11.1050    97.0120 OW            1 RES     
    5998 HW1         34.0434    10.2810    96.4480 HW1           1 RES     
    5999 HW2         34.9414    11.3640    97.2770 HW2           1 RES     
    6000 OW          17.7614    18.6820   113.5270 OW            1 RES     
    6001 HW1         17.0004    18.0360   113.5640 HW1           1 RES     
    6002 HW2         17.4064    19.6170   113.5150 HW2           1 RES     
    6003 OW          49.7994    42.9590    98.4490 OW            1 RES     
    6004 HW1         50.1444    42.9550    99.3870 HW1           1 RES     
    6005 HW2         49.0494    42.3020    98.3670 HW2           1 RES     
    6006 OW          19.4874    42.6840   114.6310 OW            1 RES     
    6007 HW1         18.6184    42.3870   115.0230 HW1           1 RES     
    6008 HW2         20.2104    42.0470   114.9010 HW2           1 RES     
    6009 OW          15.6374    41.7630   113.7730 OW            1 RES     
    6010 HW1         15.7304    42.2920   114.6160 HW1           1 RES     
    6011 HW2         14.7774    42.0040   113.3210 HW2           1 RES     
    6012 OW          42.0324    28.7770    92.8280 OW            1 RES     
    6013 HW1         41.3504    29.5070    92.7880 HW1           1 RES     
    6014 HW2         42.9494    29.1750    92.7940 HW2           1 RES     
    6015 OW          11.1664    47.0610   103.2830 OW            1 RES     
    6016 HW1         11.0264    46.5720   102.4220 HW1           1 RES     
    6017 HW2         10.6374    47.9100   103.2740 HW2           1 RES     
    6018 OW           7.8194    46.2560   103.3110 OW            1 RES     
    6019 HW1          8.3344    46.2210   104.1670 HW1           1 RES     
    6020 HW2          7.7104    45.3310   102.9480 HW2           1 RES     
    6021 OW          36.5394     3.1770   110.4500 OW            1 RES     
    6022 HW1         36.1564     2.4060   109.9430 HW1           1 RES     
    6023 HW2         36.5814     3.9800   109.8560 HW2           1 RES     
    6024 OW          22.7344    47.1070   112.4670 OW            1 RES     
    6025 HW1         21.7894    46.7880   112.4230 HW1           1 RES     
    6026 HW2         23.3504    46.3220   112.5340 HW2           1 RES     
    6027 OW          25.3004    26.8170   115.9880 OW            1 RES     
    6028 HW1         25.7584    26.3080   115.2600 HW1           1 RES     
    6029 HW2         24.6394    26.2230   116.4460 HW2           1 RES     
    6030 OW          35.8704    22.0640   103.0440 OW            1 RES     
    6031 HW1         35.6344    22.3180   102.1060 HW1           1 RES     
    6032 HW2         36.5114    21.2970   103.0310 HW2           1 RES     
    6033 OW          30.0354     2.1830   106.9370 OW            1 RES     
    6034 HW1         30.7934     2.8310   107.0080 HW1           1 RES     
    6035 HW2         29.3284     2.4220   107.6020 HW2           1 RES     
    6036 OW          18.5754     0.7390   111.5830 OW            1 RES     
    6037 HW1         18.6714     0.0020   110.9150 HW1           1 RES     
    6038 HW2         18.8094     0.3980   112.4930 HW2           1 RES     
    6039 OW           7.3144    41.8400    96.4790 OW            1 RES     
    6040 HW1          7.4044    42.5460    97.1810 HW1           1 RES     
    6041 HW2          6.7874    42.2010    95.7090 HW2           1 RES     
    6042 OW          47.8024    13.4990   105.1060 OW            1 RES     
    6043 HW1         47.0914    13.8780   104.5160 HW1           1 RES     
    6044 HW2         47.6084    12.5340   105.2850 HW2           1 RES     
    6045 OW          21.4344    45.5300   107.7750 OW            1 RES     
    6046 HW1         21.3794    46.4050   108.2540 HW1           1 RES     
    6047 HW2         20.6734    44.9460   108.0580 HW2           1 RES     
    6048 OW          51.4414    29.6050    90.6890 OW            1 RES     
    6049 HW1         50.7714    30.2710    90.3620 HW1           1 RES     
    6050 HW2         50.9754    28.7510    90.9220 HW2           1 RES     
    6051 OW           5.4814     8.2550   104.6450 OW            1 RES     
    6052 HW1          5.8164     7.3720   104.3180 HW1           1 RES     
    6053 HW2          4.4834     8.2340   104.6970 HW2           1 RES     
    6054 OW          32.2794    32.2760   100.4850 OW            1 RES     
    6055 HW1         32.3454    31.7430   101.3270 HW1           1 RES     
    6056 HW2         32.1374    31.6600    99.7100 HW2           1 RES     
    6057 OW          54.9534     0.5190   107.6160 OW            1 RES     
    6058 HW1         54.3434     0.7620   108.3700 HW1           1 RES     
    6059 HW2         55.4754     1.3250   107.3370 HW2           1 RES     
    6060 OW           4.8094    17.8690   107.9030 OW            1 RES     
    6061 HW1          5.3764    18.5900   108.3000 HW1           1 RES     
    6062 HW2          4.5834    17.1950   108.6070 HW2           1 RES     
    6063 OW          35.5464    39.8650   104.6430 OW            1 RES     
    6064 HW1         34.9094    39.1470   104.9230 HW1           1 RES     
    6065 HW2         35.1944    40.7550   104.9340 HW2           1 RES     
    6066 OW          42.4644    11.5060   105.5830 OW            1 RES     
    6067 HW1         42.4634    12.3900   105.1150 HW1           1 RES     
    6068 HW2         41.5224    11.1980   105.7170 HW2           1 RES     
    6069 OW          49.9254    46.5860   115.7980 OW            1 RES     
    6070 HW1         48.9784    46.7600   115.5300 HW1           1 RES     
    6071 HW2         50.3094    45.8670   115.2170 HW2           1 RES     
    6072 OW          19.8934    35.1500    98.2740 OW            1 RES     
    6073 HW1         19.0584    34.6010    98.2750 HW1           1 RES     
    6074 HW2         20.6904    34.5460    98.2800 HW2           1 RES     
    6075 OW          55.1934    27.2750   116.0640 OW            1 RES     
    6076 HW1         56.0804    27.7140   115.9200 HW1           1 RES     
    6077 HW2         54.5334    27.9540   116.3860 HW2           1 RES     
    6078 OW          23.7664    17.7950    94.4240 OW            1 RES     
    6079 HW1         24.5464    17.4070    94.9150 HW1           1 RES     
    6080 HW2         23.8664    18.7890    94.3710 HW2           1 RES     
    6081 OW          35.2074    28.4190    91.3760 OW            1 RES     
    6082 HW1         34.5514    29.1570    91.2220 HW1           1 RES     
    6083 HW2         36.1134    28.7060    91.0630 HW2           1 RES     
    6084 OW          43.8574    42.2260    90.9390 OW            1 RES     
    6085 HW1         43.4084    43.0180    90.5270 HW1           1 RES     
    6086 HW2         43.8754    41.4730    90.2820 HW2           1 RES     
    6087 OW          13.5134    29.1330   115.3700 OW            1 RES     
    6088 HW1         12.9374    29.7850   115.8610 HW1           1 RES     
    6089 HW2         13.9894    28.5470   116.0270 HW2           1 RES     
    6090 OW           5.8614     2.8470   114.7940 OW            1 RES     
    6091 HW1          6.5584     3.3130   114.2500 HW1           1 RES     
    6092 HW2          5.5794     3.4370   115.5510 HW2           1 RES     
    6093 OW          49.8194    30.2220   102.8040 OW            1 RES     
    6094 HW1         49.3254    30.8370   103.4180 HW1           1 RES     
    6095 HW2         49.3404    29.3450   102.7560 HW2           1 RES     
    6096 OW          47.2364    34.1850   103.9360 OW            1 RES     
    6097 HW1         48.0164    33.8310   103.4210 HW1           1 RES     
    6098 HW2         46.4364    33.6080   103.7700 HW2           1 RES     
    6099 OW          35.6494    14.0520    95.4910 OW            1 RES     
    6100 HW1         35.1144    14.7390    95.0010 HW1           1 RES     
    6101 HW2         35.0324    13.4250    95.9670 HW2           1 RES     
    6102 OW           9.9764     6.2420    93.9150 OW            1 RES     
    6103 HW1         10.1494     5.2580    93.9480 HW1           1 RES     
    6104 HW2          8.9984     6.4130    94.0310 HW2           1 RES     
    6105 OW          12.8944    40.9630   106.6640 OW            1 RES     
    6106 HW1         13.6344    41.6210   106.8000 HW1           1 RES     
    6107 HW2         12.1094    41.4240   106.2500 HW2           1 RES     
    6108 OW          41.0434    22.0800   114.5760 OW            1 RES     
    6109 HW1         41.8554    22.0280   115.1550 HW1           1 RES     
    6110 HW2         40.5684    22.9440   114.7420 HW2           1 RES     
    6111 OW          41.1624    43.5850   112.6760 OW            1 RES     
    6112 HW1         42.1274    43.8170   112.5610 HW1           1 RES     
    6113 HW2         41.0624    42.5920   112.7360 HW2           1 RES     
    6114 OW           1.6804    36.2630    92.3260 OW            1 RES     
    6115 HW1          2.2674    35.6740    92.8800 HW1           1 RES     
    6116 HW2          1.4574    35.7990    91.4680 HW2           1 RES     
    6117 OW          38.8864    17.3510   115.2680 OW            1 RES     
    6118 HW1         39.4904    18.1250   115.0800 HW1           1 RES     
    6119 HW2         38.3604    17.1320   114.4460 HW2           1 RES     
    6120 OW          54.0284    28.7130   110.2760 OW            1 RES     
    6121 HW1         53.8004    27.8170   110.6560 HW1           1 RES     
    6122 HW2         54.0804    28.6510   109.2800 HW2           1 RES     
    6123 OW          40.3164    15.5350   111.2240 OW            1 RES     
    6124 HW1         39.6214    15.9840   111.7850 HW1           1 RES     
    6125 HW2         41.1264    15.3490   111.7820 HW2           1 RES     
    6126 OW          12.5384    23.5530   113.6350 OW            1 RES     
    6127 HW1         13.3484    22.9680   113.6630 HW1           1 RES     
    6128 HW2         12.7344    24.3690   113.0920 HW2           1 RES     
    6129 OW          14.0694    36.9750   116.2900 OW            1 RES     
    6130 HW1         14.0434    37.6130   115.5210 HW1           1 RES     
    6131 HW2         14.3144    37.4690   117.1250 HW2           1 RES     
    6132 OW          18.9364    42.1000   100.7810 OW            1 RES     
    6133 HW1         19.2164    42.3650   101.7030 HW1           1 RES     
    6134 HW2         19.7474    41.8940   100.2320 HW2           1 RES     
    6135 OW          16.6074    29.8780   102.9390 OW            1 RES     
    6136 HW1         17.3244    29.1830   102.9150 HW1           1 RES     
    6137 HW2         17.0224    30.7840   103.0310 HW2           1 RES     
    6138 OW          36.0714     6.7830    99.1900 OW            1 RES     
    6139 HW1         36.2614     6.1010    99.8950 HW1           1 RES     
    6140 HW2         36.0894     7.6970    99.5950 HW2           1 RES     
    6141 OW          39.5294     0.8120    94.4700 OW            1 RES     
    6142 HW1         39.1074     1.6760    94.7390 HW1           1 RES     
    6143 HW2         39.1404     0.5050    93.6020 HW2           1 RES     
    6144 OW          41.4974    33.8190   111.0350 OW            1 RES     
    6145 HW1         42.1564    34.5700   110.9980 HW1           1 RES     
    6146 HW2         41.9824    32.9560   111.1780 HW2           1 RES     
    6147 OW          33.4814     9.1390    98.2430 OW            1 RES     
    6148 HW1         32.5544     9.4440    98.0260 HW1           1 RES     
    6149 HW2         33.6244     8.2190    97.8780 HW2           1 RES     
    6150 OW           5.3134    20.7060   108.9300 OW            1 RES     
    6151 HW1          4.3324    20.5470   108.8280 HW1           1 RES     
    6152 HW2          5.4834    21.6850   109.0420 HW2           1 RES     
    6153 OW          25.7714    46.7980    97.5080 OW            1 RES     
    6154 HW1         26.1694    47.7130    97.5690 HW1           1 RES     
    6155 HW2         24.8844    46.8490    97.0490 HW2           1 RES     
    6156 OW           6.0004    40.0060   107.4290 OW            1 RES     
    6157 HW1          5.9404    39.1830   107.9930 HW1           1 RES     
    6158 HW2          5.1594    40.1090   106.8980 HW2           1 RES     
    6159 OW          44.1484    38.8740    99.5370 OW            1 RES     
    6160 HW1         44.3144    39.1960    98.6060 HW1           1 RES     
    6161 HW2         43.2394    39.1660    99.8350 HW2           1 RES     
    6162 OW          21.3974    16.0940   110.0750 OW            1 RES     
    6163 HW1         20.4634    15.9700   110.4070 HW1           1 RES     
    6164 HW2         21.6864    17.0380   110.2360 HW2           1 RES     
    6165 OW          19.8574    17.8930   111.3090 OW            1 RES     
    6166 HW1         19.8634    18.7810   110.8500 HW1           1 RES     
    6167 HW2         19.0694    17.8390   111.9220 HW2           1 RES     
    6168 OW           9.3774    41.6900   102.3960 OW            1 RES     
    6169 HW1          9.5564    40.7120   102.2900 HW1           1 RES     
    6170 HW2          8.3974    41.8360   102.5370 HW2           1 RES     
    6171 OW          35.7714    15.1220   105.7160 OW            1 RES     
    6172 HW1         35.4464    14.9890   106.6520 HW1           1 RES     
    6173 HW2         36.3244    15.9540   105.6700 HW2           1 RES     
    6174 OW           0.0004    31.1550   101.3860 OW            1 RES     
    6175 HW1          0.0784    31.5290   102.3100 HW1           1 RES     
    6176 HW2          0.0164    30.1560   101.4280 HW2           1 RES     
    6177 OW          17.6814     5.4580    91.9570 OW            1 RES     
    6178 HW1         17.0604     4.9740    91.3410 HW1           1 RES     
    6179 HW2         18.2314     6.1090    91.4330 HW2           1 RES     
    6180 OW          16.9624    47.0560   116.7470 OW            1 RES     
    6181 HW1         16.1484    46.5440   117.0180 HW1           1 RES     
    6182 HW2         17.6794    46.9310   117.4330 HW2           1 RES     
    6183 OW           8.2544    39.6300   113.6540 OW            1 RES     
    6184 HW1          8.7554    40.4230   114.0000 HW1           1 RES     
    6185 HW2          7.2744    39.7680   113.7940 HW2           1 RES     
    6186 OW          23.8354    24.4330    92.4580 OW            1 RES     
    6187 HW1         23.6344    24.9540    93.2870 HW1           1 RES     
    6188 HW2         23.1034    23.7710    92.2950 HW2           1 RES     
    6189 OW           1.7454    35.5280   117.1920 OW            1 RES     
    6190 HW1          1.5994    34.6110   117.5630 HW1           1 RES     
    6191 HW2          1.0894    35.6980   116.4570 HW2           1 RES     
    6192 OW          56.6154     8.2020   103.0230 OW            1 RES     
    6193 HW1         57.2354     8.0690   102.2510 HW1           1 RES     
    6194 HW2         55.7194     8.4930   102.6850 HW2           1 RES     
    6195 OW           4.3834    33.0030   104.2990 OW            1 RES     
    6196 HW1          4.9884    32.5970   104.9840 HW1           1 RES     
    6197 HW2          4.4464    34.0000   104.3480 HW2           1 RES     
    6198 OW          42.9844    32.9270    97.8050 OW            1 RES     
    6199 HW1         42.5634    33.8320    97.8520 HW1           1 RES     
    6200 HW2         43.9794    33.0180    97.8650 HW2           1 RES     
    6201 OW          35.3654     9.8900    91.0900 OW            1 RES     
    6202 HW1         35.3254    10.8880    91.0440 HW1           1 RES     
    6203 HW2         34.4374     9.5180    91.0950 HW2           1 RES     
    6204 OW          21.4054    23.7430   110.5810 OW            1 RES     
    6205 HW1         21.3024    22.9950   109.9260 HW1           1 RES     
    6206 HW2         21.1134    23.4370   111.4870 HW2           1 RES     
    6207 OW          52.7984     8.5110    92.0270 OW            1 RES     
    6208 HW1         53.1304     7.9580    92.7900 HW1           1 RES     
    6209 HW2         53.4714     9.2170    91.8080 HW2           1 RES     
    6210 OW          47.8504     0.8440   108.0810 OW            1 RES     
    6211 HW1         47.0684     0.4460   108.5600 HW1           1 RES     
    6212 HW2         47.6974     1.8240   107.9480 HW2           1 RES     
    6213 OW          16.6544    16.0210   102.8700 OW            1 RES     
    6214 HW1         16.7574    15.1460   102.3980 HW1           1 RES     
    6215 HW2         16.0774    16.6290   102.3230 HW2           1 RES     
    6216 OW          18.9404    13.7000   103.8060 OW            1 RES     
    6217 HW1         18.3134    13.2980   103.1390 HW1           1 RES     
    6218 HW2         18.9474    14.6940   103.7000 HW2           1 RES     
    6219 OW          29.9504    18.0640   102.8690 OW            1 RES     
    6220 HW1         29.3804    17.2690   102.6660 HW1           1 RES     
    6221 HW2         29.7134    18.4240   103.7720 HW2           1 RES     
    6222 OW          33.9464    36.0000    93.3360 OW            1 RES     
    6223 HW1         34.7034    36.5800    93.0390 HW1           1 RES     
    6224 HW2         34.0934    35.7190    94.2850 HW2           1 RES     
    6225 OW          33.2354    17.2560   101.6910 OW            1 RES     
    6226 HW1         33.7574    16.6230   101.1200 HW1           1 RES     
    6227 HW2         33.7954    18.0600   101.8940 HW2           1 RES     
    6228 OW           2.8774    24.2880    94.4960 OW            1 RES     
    6229 HW1          3.4224    23.4600    94.3710 HW1           1 RES     
    6230 HW2          2.0854    24.2610    93.8860 HW2           1 RES     
    6231 OW          33.0144    23.3420    98.2310 OW            1 RES     
    6232 HW1         32.7684    23.8830    99.0340 HW1           1 RES     
    6233 HW2         33.8004    23.7590    97.7750 HW2           1 RES     
    6234 OW          51.3464    36.3200   115.8440 OW            1 RES     
    6235 HW1         50.7844    35.6020   115.4340 HW1           1 RES     
    6236 HW2         51.8284    36.8190   115.1240 HW2           1 RES     
    6237 OW          24.2304    19.5960   107.6150 OW            1 RES     
    6238 HW1         24.7114    20.0950   106.8950 HW1           1 RES     
    6239 HW2         24.3204    20.0890   108.4810 HW2           1 RES     
    6240 OW           8.5344    45.2400   113.6710 OW            1 RES     
    6241 HW1          8.5354    44.2480   113.5460 HW1           1 RES     
    6242 HW2          7.6564    45.5270   114.0540 HW2           1 RES     
    6243 OW          22.2544    26.0660   100.0090 OW            1 RES     
    6244 HW1         23.0544    26.6560    99.9040 HW1           1 RES     
    6245 HW2         22.4834    25.1370    99.7160 HW2           1 RES     
    6246 OW          50.4524    44.8920   108.1620 OW            1 RES     
    6247 HW1         50.2854    44.2870   108.9390 HW1           1 RES     
    6248 HW2         50.5914    44.3450   107.3360 HW2           1 RES     
    6249 OW          45.2984    32.6060   109.8130 OW            1 RES     
    6250 HW1         45.8524    32.7020   108.9870 HW1           1 RES     
    6251 HW2         44.3524    32.8610   109.6120 HW2           1 RES     
    6252 OW          10.8874    12.6640    93.7630 OW            1 RES     
    6253 HW1         11.8414    12.9610    93.7990 HW1           1 RES     
    6254 HW2         10.2874    13.4630    93.8070 HW2           1 RES     
    6255 OW          47.6804    15.8720   101.0590 OW            1 RES     
    6256 HW1         47.6984    16.0130   102.0480 HW1           1 RES     
    6257 HW2         46.7384    15.9430   100.7290 HW2           1 RES     
    6258 OW          39.7744     4.2240   100.8890 OW            1 RES     
    6259 HW1         38.9144     4.2910   100.3850 HW1           1 RES     
    6260 HW2         40.5404     4.2290   100.2450 HW2           1 RES     
    6261 OW          48.6824     6.0560    98.4370 OW            1 RES     
    6262 HW1         48.6744     5.3720    97.7080 HW1           1 RES     
    6263 HW2         48.0894     6.8200    98.1840 HW2           1 RES     
    6264 OW          57.0384     0.4210    96.0280 OW            1 RES     
    6265 HW1         56.1634     0.0000    96.2660 HW1           1 RES     
    6266 HW2         57.2324     1.1690    96.6630 HW2           1 RES     
    6267 OW          51.2114    21.2080    94.1810 OW            1 RES     
    6268 HW1         52.0484    21.4030    94.6920 HW1           1 RES     
    6269 HW2         51.0814    20.2190    94.1180 HW2           1 RES     
    6270 OW           8.5714    15.8550    97.6400 OW            1 RES     
    6271 HW1          9.5614    15.9640    97.5650 HW1           1 RES     
    6272 HW2          8.1724    16.6880    98.0260 HW2           1 RES     
    6273 OW          20.9624    41.2180    97.5510 OW            1 RES     
    6274 HW1         20.4054    41.8680    98.0670 HW1           1 RES     
    6275 HW2         21.9314    41.4160    97.7000 HW2           1 RES     
    6276 OW           2.5304    30.2630   100.1000 OW            1 RES     
    6277 HW1          2.2504    31.0980   100.5730 HW1           1 RES     
    6278 HW2          2.0504    29.4790   100.4960 HW2           1 RES     
    6279 OW          18.6664    40.7390    95.2570 OW            1 RES     
    6280 HW1         19.3924    41.3490    94.9400 HW1           1 RES     
    6281 HW2         18.9534    39.7880    95.1390 HW2           1 RES     
    6282 OW          22.4204    30.9300   111.6680 OW            1 RES     
    6283 HW1         22.2374    30.2000   111.0110 HW1           1 RES     
    6284 HW2         22.6154    31.7800   111.1780 HW2           1 RES     
    6285 OW           9.3204    23.5480   116.7710 OW            1 RES     
    6286 HW1          9.1784    22.9580   117.5650 HW1           1 RES     
    6287 HW2          8.9874    24.4680   116.9740 HW2           1 RES     
    6288 OW          16.6434    15.7980   107.5760 OW            1 RES     
    6289 HW1         15.7604    15.4550   107.2570 HW1           1 RES     
    6290 HW2         16.8074    15.4800   108.5100 HW2           1 RES     
    6291 OW          39.8464    26.7880   101.2720 OW            1 RES     
    6292 HW1         40.3384    27.1970   100.5040 HW1           1 RES     
    6293 HW2         38.9844    27.2750   101.4130 HW2           1 RES     
    6294 OW           0.7204    22.1870   102.8030 OW            1 RES     
    6295 HW1          1.2614    21.7210   102.1040 HW1           1 RES     
    6296 HW2          0.1724    22.9070   102.3760 HW2           1 RES     
    6297 OW          26.0494     2.1760   115.4130 OW            1 RES     
    6298 HW1         26.4354     1.2930   115.1450 HW1           1 RES     
    6299 HW2         25.5294     2.0700   116.2600 HW2           1 RES     
    6300 OW          50.4274    17.5900   114.4060 OW            1 RES     
    6301 HW1         49.5104    17.9240   114.1890 HW1           1 RES     
    6302 HW2         51.0284    18.3660   114.5960 HW2           1 RES     
    6303 OW          11.1844     1.0560    92.4140 OW            1 RES     
    6304 HW1         11.7274     0.3170    92.0180 HW1           1 RES     
    6305 HW2         10.2824     0.7080    92.6690 HW2           1 RES     
    6306 OW          12.4394    10.3720   113.7610 OW            1 RES     
    6307 HW1         12.5234     9.3990   113.5470 HW1           1 RES     
    6308 HW2         13.0024    10.5890   114.5590 HW2           1 RES     
    6309 OW          51.4274    37.8460   101.3870 OW            1 RES     
    6310 HW1         51.3534    37.3210   102.2340 HW1           1 RES     
    6311 HW2         50.5674    38.3260   101.2150 HW2           1 RES     
    6312 OW          15.7104    20.8870   106.1500 OW            1 RES     
    6313 HW1         16.4404    20.2050   106.1440 HW1           1 RES     
    6314 HW2         15.4364    21.0760   107.0930 HW2           1 RES     
    6315 OW          50.8854    22.2420    98.9220 OW            1 RES     
    6316 HW1         50.4254    22.3000    99.8070 HW1           1 RES     
    6317 HW2         51.3524    21.3610    98.8460 HW2           1 RES     
    6318 OW           4.1084    16.1700    95.1770 OW            1 RES     
    6319 HW1          4.0014    16.8070    94.4140 HW1           1 RES     
    6320 HW2          3.2144    15.8000    95.4300 HW2           1 RES     
    6321 OW          21.6304    40.2260    91.4460 OW            1 RES     
    6322 HW1         21.6164    39.3850    90.9060 HW1           1 RES     
    6323 HW2         22.5014    40.2970    91.9320 HW2           1 RES     
    6324 OW          12.6544     5.8530    99.7470 OW            1 RES     
    6325 HW1         11.7814     5.8250    99.2620 HW1           1 RES     
    6326 HW2         13.2614     6.5130    99.3030 HW2           1 RES     
    6327 OW           2.2784     1.0420   113.7150 OW            1 RES     
    6328 HW1          2.1654     0.7910   112.7540 HW1           1 RES     
    6329 HW2          1.7684     1.8830   113.9020 HW2           1 RES     
    6330 OW           3.4424    39.7440    98.9080 OW            1 RES     
    6331 HW1          3.6724    39.0760    98.2010 HW1           1 RES     
    6332 HW2          2.9104    40.4880    98.5040 HW2           1 RES     
    6333 OW          38.2844     2.5970    96.5610 OW            1 RES     
    6334 HW1         38.2824     3.0610    97.4460 HW1           1 RES     
    6335 HW2         37.8944     1.6810    96.6630 HW2           1 RES     
    6336 OW          34.3124     8.4470   103.5710 OW            1 RES     
    6337 HW1         33.7384     7.6340   103.4740 HW1           1 RES     
    6338 HW2         35.2314     8.1740   103.8560 HW2           1 RES     
    6339 OW          33.4854    40.1930   102.5700 OW            1 RES     
    6340 HW1         33.2504    41.0460   102.1050 HW1           1 RES     
    6341 HW2         32.9314    39.4470   102.1990 HW2           1 RES     
    6342 OW          16.9764     5.8630    95.2260 OW            1 RES     
    6343 HW1         17.2344     6.8240    95.3230 HW1           1 RES     
    6344 HW2         17.2704     5.5270    94.3310 HW2           1 RES     
    6345 OW          52.9684     5.0120    91.2580 OW            1 RES     
    6346 HW1         53.6894     5.6690    91.0410 HW1           1 RES     
    6347 HW2         52.1854     5.1650    90.6550 HW2           1 RES     
    6348 OW          55.1614    24.3680   106.6300 OW            1 RES     
    6349 HW1         56.0524    23.9190   106.5700 HW1           1 RES     
    6350 HW2         55.2904    25.3570   106.6990 HW2           1 RES     
    6351 OW          10.0754    43.4460   104.4140 OW            1 RES     
    6352 HW1          9.1764    43.0100   104.3960 HW1           1 RES     
    6353 HW2          9.9704    44.4330   104.2860 HW2           1 RES     
    6354 OW           9.8924    42.7440    96.5230 OW            1 RES     
    6355 HW1          9.5894    42.0930    97.2170 HW1           1 RES     
    6356 HW2          9.3344    42.6410    95.7000 HW2           1 RES     
    6357 OW          13.1334     3.0010   110.8720 OW            1 RES     
    6358 HW1         12.9274     3.4810   110.0200 HW1           1 RES     
    6359 HW2         12.2834     2.6790   111.2890 HW2           1 RES     
    6360 OW          38.4244    43.9370   101.9310 OW            1 RES     
    6361 HW1         38.8464    43.0340   101.8610 HW1           1 RES     
    6362 HW2         39.1324    44.6270   102.0760 HW2           1 RES     
    6363 OW           0.1604    38.6210   116.4080 OW            1 RES     
    6364 HW1          1.1344    38.8360   116.4640 HW1           1 RES     
    6365 HW2          0.0374    37.6290   116.3900 HW2           1 RES     
    6366 OW          36.3944    36.9520   107.6040 OW            1 RES     
    6367 HW1         37.0614    36.2120   107.6930 HW1           1 RES     
    6368 HW2         35.4694    36.5740   107.6460 HW2           1 RES     
    6369 OW          40.6574    26.7100   114.4680 OW            1 RES     
    6370 HW1         40.9224    26.4620   115.3990 HW1           1 RES     
    6371 HW2         41.2144    26.1980   113.8150 HW2           1 RES     
    6372 OW          23.3234     5.4130   117.2590 OW            1 RES     
    6373 HW1         22.3674     5.6590   117.1030 HW1           1 RES     
    6374 HW2         23.4414     4.4280   117.1310 HW2           1 RES     
    6375 OW          14.7804     3.0990   107.8190 OW            1 RES     
    6376 HW1         14.2294     3.8090   107.3820 HW1           1 RES     
    6377 HW2         15.5574     3.5210   108.2880 HW2           1 RES     
    6378 OW          39.1314    46.6180   113.5260 OW            1 RES     
    6379 HW1         38.7424    45.7180   113.7150 HW1           1 RES     
    6380 HW2         40.1304    46.5570   113.5230 HW2           1 RES     
    6381 OW          29.7884    28.7860   103.0000 OW            1 RES     
    6382 HW1         30.4764    29.1040   102.3490 HW1           1 RES     
    6383 HW2         29.4794    27.8710   102.7410 HW2           1 RES     
    6384 OW          54.4614     3.5420   105.6300 OW            1 RES     
    6385 HW1         53.5454     3.9120   105.7820 HW1           1 RES     
    6386 HW2         54.4194     2.5430   105.6170 HW2           1 RES     
    6387 OW          17.5084    25.3780    96.2500 OW            1 RES     
    6388 HW1         17.8984    24.4600    96.2920 HW1           1 RES     
    6389 HW2         17.8844    25.9350    96.9910 HW2           1 RES     
    6390 OW          30.7494    20.7670   114.6610 OW            1 RES     
    6391 HW1         31.2004    21.3150   113.9580 HW1           1 RES     
    6392 HW2         31.4364    20.2540   115.1770 HW2           1 RES     
    6393 OW          50.3504     0.8930   113.9270 OW            1 RES     
    6394 HW1         50.9624     1.5430   113.4760 HW1           1 RES     
    6395 HW2         49.5304     1.3710   114.2420 HW2           1 RES     
    6396 OW          16.9934    11.0830   105.8960 OW            1 RES     
    6397 HW1         17.7904    11.3300   105.3470 HW1           1 RES     
    6398 HW2         16.2864    11.7830   105.7940 HW2           1 RES     
    6399 OW          29.3424    30.3290    99.3960 OW            1 RES     
    6400 HW1         30.3364    30.4260    99.3510 HW1           1 RES     
    6401 HW2         28.9134    31.0170    98.8100 HW2           1 RES     
    6402 OW          22.6444    20.5630   112.0370 OW            1 RES     
    6403 HW1         21.8234    20.4890   111.4710 HW1           1 RES     
    6404 HW2         23.1464    21.3920   111.7900 HW2           1 RES     
    6405 OW          19.7634    33.5870    95.3380 OW            1 RES     
    6406 HW1         20.3254    34.4120    95.2780 HW1           1 RES     
    6407 HW2         19.1674    33.5310    94.5370 HW2           1 RES     
    6408 OW          23.7084    46.6160   103.0470 OW            1 RES     
    6409 HW1         22.7554    46.8880   102.9140 HW1           1 RES     
    6410 HW2         23.8984    45.7930   102.5110 HW2           1 RES     
    6411 OW          20.0044    23.5740    99.7220 OW            1 RES     
    6412 HW1         20.9094    23.6330   100.1420 HW1           1 RES     
    6413 HW2         20.0144    24.0460    98.8410 HW2           1 RES     
    6414 OW           3.0784    47.9480   115.9610 OW            1 RES     
    6415 HW1          3.6844    48.4460   115.3420 HW1           1 RES     
    6416 HW2          3.5274    47.1070   116.2640 HW2           1 RES     
    6417 OW          27.5644    30.9730   107.8770 OW            1 RES     
    6418 HW1         26.9264    31.6250   107.4680 HW1           1 RES     
    6419 HW2         28.5014    31.3010   107.7570 HW2           1 RES     
    6420 OW           2.6914    30.1940    91.9110 OW            1 RES     
    6421 HW1          2.7184    31.1820    92.0620 HW1           1 RES     
    6422 HW2          3.5534    29.7860    92.2140 HW2           1 RES     
    6423 OW           5.2224    46.8740    96.8530 OW            1 RES     
    6424 HW1          5.2964    45.9330    97.1830 HW1           1 RES     
    6425 HW2          4.4664    46.9400    96.2000 HW2           1 RES     
    6426 OW          56.3904    19.1720   105.7020 OW            1 RES     
    6427 HW1         57.0854    18.9130   105.0320 HW1           1 RES     
    6428 HW2         56.5814    18.7200   106.5730 HW2           1 RES     
    6429 OW          34.5614    11.1180   112.5230 OW            1 RES     
    6430 HW1         35.5294    11.3690   112.5210 HW1           1 RES     
    6431 HW2         34.4654    10.1600   112.7950 HW2           1 RES     
    6432 OW          37.8884    43.5340    96.1590 OW            1 RES     
    6433 HW1         38.8504    43.4140    96.4010 HW1           1 RES     
    6434 HW2         37.6774    44.5100    96.0990 HW2           1 RES     
    6435 OW          30.1544    43.3470    92.3890 OW            1 RES     
    6436 HW1         29.9334    43.7190    91.4880 HW1           1 RES     
    6437 HW2         31.1284    43.4760    92.5750 HW2           1 RES     
    6438 OW          44.7794    15.4010   109.1600 OW            1 RES     
    6439 HW1         44.8674    15.0120   108.2430 HW1           1 RES     
    6440 HW2         44.2394    14.7850   109.7330 HW2           1 RES     
    6441 OW          54.5314    34.9800   116.8650 OW            1 RES     
    6442 HW1         54.1784    34.3520   117.5580 HW1           1 RES     
    6443 HW2         53.8234    35.6430   116.6230 HW2           1 RES     
    6444 OW          21.1794    10.4130   108.0790 OW            1 RES     
    6445 HW1         20.2504    10.6380   107.7870 HW1           1 RES     
    6446 HW2         21.8104    10.5410   107.3140 HW2           1 RES     
    6447 OW          34.0494     4.9470   113.5000 OW            1 RES     
    6448 HW1         33.2174     4.4060   113.3820 HW1           1 RES     
    6449 HW2         34.8374     4.3350   113.5770 HW2           1 RES     
    6450 OW          29.0654    28.8910   112.1740 OW            1 RES     
    6451 HW1         29.1004    28.2990   112.9780 HW1           1 RES     
    6452 HW2         29.9424    28.8570   111.6940 HW2           1 RES     
    6453 OW          42.1444     7.7580   116.4900 OW            1 RES     
    6454 HW1         42.5124     7.0000   117.0280 HW1           1 RES     
    6455 HW2         41.1624     7.8440   116.6630 HW2           1 RES     
    6456 OW          21.7634    13.3280   102.0470 OW            1 RES     
    6457 HW1         21.0854    13.7850   102.6220 HW1           1 RES     
    6458 HW2         21.3034    12.6780   101.4420 HW2           1 RES     
    6459 OW          33.3074    44.4880   103.3130 OW            1 RES     
    6460 HW1         34.2074    44.0670   103.4190 HW1           1 RES     
    6461 HW2         33.4154    45.4330   103.0030 HW2           1 RES     
    6462 OW          52.0584    39.0690   103.7900 OW            1 RES     
    6463 HW1         52.7614    38.3960   103.5640 HW1           1 RES     
    6464 HW2         51.2714    38.6060   104.1980 HW2           1 RES     
    6465 OW          36.2514    21.8860   105.3980 OW            1 RES     
    6466 HW1         36.3184    20.8940   105.4970 HW1           1 RES     
    6467 HW2         35.6614    22.2530   106.1170 HW2           1 RES     
    6468 OW           6.2924     1.2230   100.0420 OW            1 RES     
    6469 HW1          7.0314     1.3910   100.6940 HW1           1 RES     
    6470 HW2          6.4304     0.3360    99.6010 HW2           1 RES     
    6471 OW          35.7144     2.1440   115.2720 OW            1 RES     
    6472 HW1         34.8774     2.6550   115.0770 HW1           1 RES     
    6473 HW2         36.0864     2.4370   116.1530 HW2           1 RES     
    6474 OW          25.7854    12.3270   101.3870 OW            1 RES     
    6475 HW1         26.7494    12.3400   101.6500 HW1           1 RES     
    6476 HW2         25.3214    11.5770   101.8600 HW2           1 RES     
    6477 OW           8.5874    23.9960   114.2190 OW            1 RES     
    6478 HW1          7.7294    24.0900   114.7230 HW1           1 RES     
    6479 HW2          9.1034    23.2180   114.5790 HW2           1 RES     
    6480 OW          25.8164     7.9960   106.3420 OW            1 RES     
    6481 HW1         26.1604     7.1350   106.7150 HW1           1 RES     
    6482 HW2         25.1624     7.8050   105.6100 HW2           1 RES     
    6483 OW           6.6334    21.5030    92.0670 OW            1 RES     
    6484 HW1          5.9374    22.2070    92.2050 HW1           1 RES     
    6485 HW2          6.5184    21.0910    91.1630 HW2           1 RES     
    6486 OW           4.9584    45.9420    93.7410 OW            1 RES     
    6487 HW1          4.3144    46.7070    93.7570 HW1           1 RES     
    6488 HW2          4.9524    45.5200    92.8340 HW2           1 RES     
    6489 OW           5.0754     3.9060   102.4120 OW            1 RES     
    6490 HW1          5.2694     2.9930   102.7700 HW1           1 RES     
    6491 HW2          5.8424     4.5140   102.6180 HW2           1 RES     
    6492 OW          50.4334    31.4780   114.3320 OW            1 RES     
    6493 HW1         50.5714    30.7050   113.7140 HW1           1 RES     
    6494 HW2         51.2974    31.7040   114.7820 HW2           1 RES     
    6495 OW          49.1234    38.5350    96.9910 OW            1 RES     
    6496 HW1         48.6134    39.1800    97.5590 HW1           1 RES     
    6497 HW2         49.8964    39.0040    96.5640 HW2           1 RES     
    6498 OW           2.8644    36.7210   113.4210 OW            1 RES     
    6499 HW1          2.3544    36.0030   112.9490 HW1           1 RES     
    6500 HW2          3.8434    36.6010   113.2530 HW2           1 RES     
    6501 OW          35.5744    12.1150   104.2170 OW            1 RES     
    6502 HW1         36.5044    11.8780   104.4950 HW1           1 RES     
    6503 HW2         35.0054    11.2920   104.2170 HW2           1 RES     
    6504 OW          34.7034    34.0750    97.1850 OW            1 RES     
    6505 HW1         35.6464    34.3910    97.2850 HW1           1 RES     
    6506 HW2         34.0794    34.7690    97.5460 HW2           1 RES     
    6507 OW          21.3634    24.5990    93.3570 OW            1 RES     
    6508 HW1         20.7214    25.2970    93.6750 HW1           1 RES     
    6509 HW2         20.8544    23.8050    93.0250 HW2           1 RES     
    6510 OW          43.7304    14.1690   113.2020 OW            1 RES     
    6511 HW1         43.3634    14.6220   114.0130 HW1           1 RES     
    6512 HW2         44.6824    13.9090   113.3670 HW2           1 RES     
    6513 OW           3.8524    24.2890   103.5670 OW            1 RES     
    6514 HW1          4.1694    23.3490   103.4440 HW1           1 RES     
    6515 HW2          3.2934    24.3470   104.3950 HW2           1 RES     
    6516 OW          41.5824     0.3260   107.7550 OW            1 RES     
    6517 HW1         42.3954     0.5080   108.3070 HW1           1 RES     
    6518 HW2         40.7694     0.3620   108.3360 HW2           1 RES     
    6519 OW           7.6964    37.6130   107.3700 OW            1 RES     
    6520 HW1          7.4804    37.7950   106.4120 HW1           1 RES     
    6521 HW2          8.1954    38.3900   107.7540 HW2           1 RES     
    6522 OW          40.7744    44.6970   107.3080 OW            1 RES     
    6523 HW1         41.0534    43.7730   107.0480 HW1           1 RES     
    6524 HW2         40.8484    44.8010   108.3000 HW2           1 RES     
    6525 OW          25.6084    11.3190   111.2150 OW            1 RES     
    6526 HW1         24.9484    12.0580   111.0880 HW1           1 RES     
    6527 HW2         26.4604    11.5480   110.7450 HW2           1 RES     
    6528 OW          23.9254    28.9110    97.9170 OW            1 RES     
    6529 HW1         24.3594    29.6160    98.4770 HW1           1 RES     
    6530 HW2         24.3894    28.0370    98.0630 HW2           1 RES     
    6531 OW          36.2194    43.2250   109.9600 OW            1 RES     
    6532 HW1         35.4354    42.8890   110.4820 HW1           1 RES     
    6533 HW2         37.0194    43.2800   110.5570 HW2           1 RES     
    6534 OW          46.9584    16.0490   114.3780 OW            1 RES     
    6535 HW1         46.4784    15.1760   114.4670 HW1           1 RES     
    6536 HW2         46.3814    16.6970   113.8800 HW2           1 RES     
    6537 OW          14.7164    15.6540    94.5190 OW            1 RES     
    6538 HW1         15.3204    14.8970    94.7650 HW1           1 RES     
    6539 HW2         14.6284    16.2770    95.2970 HW2           1 RES     
    6540 OW          37.0194     8.4490   109.1070 OW            1 RES     
    6541 HW1         36.0304     8.4770   108.9640 HW1           1 RES     
    6542 HW2         37.4864     8.5660   108.2310 HW2           1 RES     
    6543 OW          38.1494    27.8510    92.2140 OW            1 RES     
    6544 HW1         38.4174    28.8130    92.1560 HW1           1 RES     
    6545 HW2         37.2964    27.7730    92.7310 HW2           1 RES     
    6546 OW          40.7674    41.3880   116.7670 OW            1 RES     
    6547 HW1         41.7214    41.6830   116.7400 HW1           1 RES     
    6548 HW2         40.2254    42.0560   117.2780 HW2           1 RES     
    6549 OW          34.4814    48.0290   113.8920 OW            1 RES     
    6550 HW1         33.9844    48.8840   113.7510 HW1           1 RES     
    6551 HW2         34.1324    47.3330   113.2640 HW2           1 RES     
    6552 OW          16.3264     7.7960   109.2860 OW            1 RES     
    6553 HW1         16.9284     8.3350   108.6990 HW1           1 RES     
    6554 HW2         15.5204     8.3380   109.5250 HW2           1 RES     
    6555 OW          35.8384    42.6340   101.6880 OW            1 RES     
    6556 HW1         35.4704    42.1840   102.5000 HW1           1 RES     
    6557 HW2         35.8914    43.6200   101.8480 HW2           1 RES     
    6558 OW           5.4924    15.2310    97.7850 OW            1 RES     
    6559 HW1          6.0534    14.4040    97.7680 HW1           1 RES     
    6560 HW2          6.0834    16.0370    97.7560 HW2           1 RES     
    6561 OW           0.3384    35.3400   106.7650 OW            1 RES     
    6562 HW1          0.0234    36.2880   106.7360 HW1           1 RES     
    6563 HW2          1.3364    35.3180   106.7120 HW2           1 RES     
    6564 OW          50.9094     3.1380   101.8390 OW            1 RES     
    6565 HW1         50.7734     2.2240   102.2200 HW1           1 RES     
    6566 HW2         51.7634     3.1590   101.3190 HW2           1 RES     
    6567 OW          31.6944    17.4170   111.6630 OW            1 RES     
    6568 HW1         31.7444    17.5870   110.6790 HW1           1 RES     
    6569 HW2         32.6164    17.2770   112.0250 HW2           1 RES     
    6570 OW           9.8414    13.2790    97.3810 OW            1 RES     
    6571 HW1         10.0644    12.7870    96.5400 HW1           1 RES     
    6572 HW2         10.6114    13.8620    97.6410 HW2           1 RES     
    6573 OW           9.5124    11.8430   110.5420 OW            1 RES     
    6574 HW1          9.0894    12.7480   110.5360 HW1           1 RES     
    6575 HW2         10.4244    11.8970   110.1350 HW2           1 RES     
    6576 OW          36.0144     0.3720   108.1670 OW            1 RES     
    6577 HW1         36.8154     0.7360   108.6420 HW1           1 RES     
    6578 HW2         35.3654     1.1120   107.9920 HW2           1 RES     
    6579 OW          32.8144    34.6840   103.7810 OW            1 RES     
    6580 HW1         33.4054    33.8840   103.8740 HW1           1 RES     
    6581 HW2         31.8844    34.4470   104.0620 HW2           1 RES     
    6582 OW           7.1154    22.4140   116.8470 OW            1 RES     
    6583 HW1          7.1304    22.2980   115.8540 HW1           1 RES     
    6584 HW2          6.9184    21.5360   117.2830 HW2           1 RES     
    6585 OW           8.1754    44.5420   110.9130 OW            1 RES     
    6586 HW1          8.6414    43.6620   110.8200 HW1           1 RES     
    6587 HW2          8.4604    45.1510   110.1730 HW2           1 RES     
    6588 OW           4.1994    25.2220   116.1770 OW            1 RES     
    6589 HW1          3.3224    25.6770   116.0250 HW1           1 RES     
    6590 HW2          4.3744    25.1540   117.1590 HW2           1 RES     
    6591 OW          22.1464     2.1790   114.7910 OW            1 RES     
    6592 HW1         21.6034     3.0170   114.7760 HW1           1 RES     
    6593 HW2         21.5774     1.4180   115.1060 HW2           1 RES     
    6594 OW          52.0694    43.2600   105.7180 OW            1 RES     
    6595 HW1         52.5334    43.8250   106.3980 HW1           1 RES     
    6596 HW2         52.7264    42.6330   105.2980 HW2           1 RES     
    6597 OW          14.3334     9.6920   105.4780 OW            1 RES     
    6598 HW1         13.3944     9.4610   105.7290 HW1           1 RES     
    6599 HW2         14.7544    10.2260   106.2120 HW2           1 RES     
    6600 OW          52.7704     7.6420    99.1820 OW            1 RES     
    6601 HW1         53.4144     7.5120    99.9350 HW1           1 RES     
    6602 HW2         51.9164     8.0240    99.5350 HW2           1 RES     
    6603 OW          26.2994    44.6950   105.5530 OW            1 RES     
    6604 HW1         27.0374    45.3090   105.8310 HW1           1 RES     
    6605 HW2         26.2964    43.8880   106.1430 HW2           1 RES     
    6606 OW           0.5914     4.4910   100.8570 OW            1 RES     
    6607 HW1          0.4824     3.5070   100.7210 HW1           1 RES     
    6608 HW2          1.5644     4.7110   100.9350 HW2           1 RES     
    6609 OW          48.1424     5.3610    91.7710 OW            1 RES     
    6610 HW1         47.8954     4.5560    92.3090 HW1           1 RES     
    6611 HW2         49.1064     5.5810    91.9220 HW2           1 RES     
    6612 OW           9.5354    31.6530    97.1420 OW            1 RES     
    6613 HW1          9.1094    32.5450    97.2900 HW1           1 RES     
    6614 HW2          9.1164    31.2100    96.3500 HW2           1 RES     
    6615 OW          45.7114     9.7360    95.9090 OW            1 RES     
    6616 HW1         45.7994    10.6890    95.6190 HW1           1 RES     
    6617 HW2         45.5494     9.1580    95.1090 HW2           1 RES     
    6618 OW          51.2034    48.8010   114.6500 OW            1 RES     
    6619 HW1         51.5514    47.8650   114.6630 HW1           1 RES     
    6620 HW2         50.2334    48.7930   114.4050 HW2           1 RES     
    6621 OW           7.5814    41.2430   108.4650 OW            1 RES     
    6622 HW1          7.5624    42.1200   108.9440 HW1           1 RES     
    6623 HW2          8.5304    40.9620   108.3220 HW2           1 RES     
    6624 OW          43.8714    25.7670   110.2130 OW            1 RES     
    6625 HW1         43.2884    25.0900   109.7640 HW1           1 RES     
    6626 HW2         43.8374    26.6270   109.7030 HW2           1 RES     
    6627 OW          31.4824    27.4530    99.2260 OW            1 RES     
    6628 HW1         30.8444    28.2220    99.2120 HW1           1 RES     
    6629 HW2         32.4214    27.7970    99.2360 HW2           1 RES     
    6630 OW          44.3934    29.0380   113.8580 OW            1 RES     
    6631 HW1         44.5184    28.1140   113.5010 HW1           1 RES     
    6632 HW2         44.9624    29.1620   114.6710 HW2           1 RES     
    6633 OW           0.2424    17.6890   111.7110 OW            1 RES     
    6634 HW1          0.6204    18.4280   111.1550 HW1           1 RES     
    6635 HW2          0.7814    16.8580   111.5730 HW2           1 RES     
    6636 OW          22.7984    10.6070   103.3350 OW            1 RES     
    6637 HW1         23.6104    10.5010   102.7620 HW1           1 RES     
    6638 HW2         22.4574    11.5450   103.2610 HW2           1 RES     
    6639 OW          25.9044    21.7690   111.5620 OW            1 RES     
    6640 HW1         26.5354    22.2920   112.1360 HW1           1 RES     
    6641 HW2         26.3624    20.9460   111.2280 HW2           1 RES     
    6642 OW          45.2454    13.0900   105.9390 OW            1 RES     
    6643 HW1         44.5464    12.4680   106.2890 HW1           1 RES     
    6644 HW2         45.6084    13.6410   106.6910 HW2           1 RES     
    6645 OW          48.1774     7.2240   110.9270 OW            1 RES     
    6646 HW1         47.2304     7.1100   111.2240 HW1           1 RES     
    6647 HW2         48.4704     6.4090   110.4270 HW2           1 RES     
    6648 OW          18.7504     8.9790   100.1730 OW            1 RES     
    6649 HW1         18.6574     8.3470    99.4040 HW1           1 RES     
    6650 HW2         18.8414     8.4590   101.0230 HW2           1 RES     
    6651 OW          40.4444     8.2350   103.4200 OW            1 RES     
    6652 HW1         40.7514     8.9920   102.8440 HW1           1 RES     
    6653 HW2         40.8574     7.3830   103.0990 HW2           1 RES     
    6654 OW           3.8934     5.8660    98.5020 OW            1 RES     
    6655 HW1          4.1554     6.6770    99.0240 HW1           1 RES     
    6656 HW2          4.6294     5.1900    98.5420 HW2           1 RES     
    6657 OW          46.6174     1.8160   103.1830 OW            1 RES     
    6658 HW1         46.7034     2.8010   103.3280 HW1           1 RES     
    6659 HW2         45.6884     1.5240   103.4150 HW2           1 RES     
    6660 OW          15.7254    18.8700   103.7010 OW            1 RES     
    6661 HW1         15.3834    19.7620   103.4060 HW1           1 RES     
    6662 HW2         14.9824    18.3510   104.1240 HW2           1 RES     
    6663 OW          25.6554    23.6510   116.4120 OW            1 RES     
    6664 HW1         25.0964    22.9100   116.7810 HW1           1 RES     
    6665 HW2         25.8854    23.4530   115.4590 HW2           1 RES     
    6666 OW          11.2394    43.6370   115.9820 OW            1 RES     
    6667 HW1         11.0664    42.6600   115.8580 HW1           1 RES     
    6668 HW2         11.2214    43.8580   116.9570 HW2           1 RES     
    6669 OW          12.3764    11.0730    90.2810 OW            1 RES     
    6670 HW1         12.1004    12.0330    90.2940 HW1           1 RES     
    6671 HW2         12.5874    10.7730    91.2120 HW2           1 RES     
    6672 OW          40.5644    39.5930   110.5400 OW            1 RES     
    6673 HW1         41.2814    40.1730   110.1560 HW1           1 RES     
    6674 HW2         39.7304    39.6900   109.9960 HW2           1 RES     
    6675 OW           9.8024     4.2900   102.9400 OW            1 RES     
    6676 HW1         10.7434     4.5680   102.7480 HW1           1 RES     
    6677 HW2          9.2824     5.0770   103.2720 HW2           1 RES     
    6678 OW          12.1024    48.3690   110.5780 OW            1 RES     
    6679 HW1         12.9144    48.9350   110.7150 HW1           1 RES     
    6680 HW2         11.3204    48.9540   110.3600 HW2           1 RES     
    6681 OW          32.9034    41.5660    98.7060 OW            1 RES     
    6682 HW1         33.2214    41.2250    99.5900 HW1           1 RES     
    6683 HW2         32.6174    42.5200    98.7990 HW2           1 RES     
    6684 OW          54.1544    41.7700   107.0060 OW            1 RES     
    6685 HW1         54.4124    42.7360   107.0050 HW1           1 RES     
    6686 HW2         54.9784    41.2050   106.9610 HW2           1 RES     
    6687 OW          16.1694    12.4890   102.8060 OW            1 RES     
    6688 HW1         15.6584    13.1970   103.2920 HW1           1 RES     
    6689 HW2         16.1894    12.7030   101.8290 HW2           1 RES     
    6690 OW          23.0504    11.4740    97.6360 OW            1 RES     
    6691 HW1         22.8144    10.5140    97.4890 HW1           1 RES     
    6692 HW2         23.5774    11.8120    96.8560 HW2           1 RES     
    6693 OW           3.1704    22.3620    96.4100 OW            1 RES     
    6694 HW1          2.6824    22.8060    97.1600 HW1           1 RES     
    6695 HW2          4.1254    22.2180    96.6710 HW2           1 RES     
    6696 OW          26.8254     7.6220   109.3760 OW            1 RES     
    6697 HW1         27.5924     8.2600   109.4290 HW1           1 RES     
    6698 HW2         25.9814     8.1280   109.2000 HW2           1 RES     
    6699 OW          34.2354     4.2880    98.7930 OW            1 RES     
    6700 HW1         33.6764     3.4600    98.7830 HW1           1 RES     
    6701 HW2         33.6414     5.0920    98.8270 HW2           1 RES     
    6702 OW          21.6134     7.2270   109.4970 OW            1 RES     
    6703 HW1         21.7874     8.0550   110.0280 HW1           1 RES     
    6704 HW2         22.3584     7.0870   108.8430 HW2           1 RES     
    6705 OW          41.1484    34.9890    95.9160 OW            1 RES     
    6706 HW1         40.7264    34.6320    96.7490 HW1           1 RES     
    6707 HW2         40.7844    34.5030    95.1220 HW2           1 RES     
    6708 OW          17.6374    22.7660   112.1760 OW            1 RES     
    6709 HW1         17.3044    23.4990   111.5840 HW1           1 RES     
    6710 HW2         18.5454    23.0030   112.5210 HW2           1 RES     
    6711 OW          24.6984    44.6090    90.6550 OW            1 RES     
    6712 HW1         24.0714    45.1090    91.2510 HW1           1 RES     
    6713 HW2         24.7524    43.6550    90.9520 HW2           1 RES     
    6714 OW          29.4434    48.2280   100.6640 OW            1 RES     
    6715 HW1         29.9484    47.3700   100.7490 HW1           1 RES     
    6716 HW2         28.4944    48.0340   100.4150 HW2           1 RES     
    6717 OW          38.5674     6.6760   102.6140 OW            1 RES     
    6718 HW1         39.0334     5.8180   102.3980 HW1           1 RES     
    6719 HW2         38.0244     6.5610   103.4460 HW2           1 RES     
    6720 OW          47.1954    15.2210   110.4750 OW            1 RES     
    6721 HW1         46.8304    15.9890   109.9500 HW1           1 RES     
    6722 HW2         48.1574    15.0820   110.2380 HW2           1 RES     
    6723 OW          17.5264    39.0630   114.9110 OW            1 RES     
    6724 HW1         18.4334    38.6460   114.9620 HW1           1 RES     
    6725 HW2         16.9254    38.4880   114.3570 HW2           1 RES     
    6726 OW          53.7214     4.9980    99.3980 OW            1 RES     
    6727 HW1         54.1094     5.0500    98.4790 HW1           1 RES     
    6728 HW2         52.7304     4.8720    99.3360 HW2           1 RES     
    6729 OW           1.0044    28.0940   115.8850 OW            1 RES     
    6730 HW1          1.4384    28.8980   115.4790 HW1           1 RES     
    6731 HW2          0.0174    28.1320   115.7270 HW2           1 RES     
    6732 OW          51.7344    39.1340   106.8780 OW            1 RES     
    6733 HW1         52.5984    38.9400   106.4150 HW1           1 RES     
    6734 HW2         51.1714    39.7260   106.3020 HW2           1 RES     
    6735 OW          22.8494    44.7610    93.6380 OW            1 RES     
    6736 HW1         22.5814    45.4680    92.9850 HW1           1 RES     
    6737 HW2         22.9734    43.8930    93.1570 HW2           1 RES     
    6738 OW          19.4044    45.9920   110.0110 OW            1 RES     
    6739 HW1         18.4754    46.3540   109.9430 HW1           1 RES     
    6740 HW2         19.3894    45.0040   109.8550 HW2           1 RES     
    6741 OW          26.2844    37.3670   102.9890 OW            1 RES     
    6742 HW1         26.1024    36.4180   102.7310 HW1           1 RES     
    6743 HW2         25.9574    37.5280   103.9200 HW2           1 RES     
    6744 OW          19.2144    42.4740    92.2020 OW            1 RES     
    6745 HW1         18.7254    42.4950    93.0730 HW1           1 RES     
    6746 HW2         19.8214    41.6790    92.1790 HW2           1 RES     
    6747 OW          38.0434    36.7040    93.1760 OW            1 RES     
    6748 HW1         37.2024    36.9760    92.7100 HW1           1 RES     
    6749 HW2         37.8954    35.8370    93.6530 HW2           1 RES     
    6750 OW           5.5084    12.2960   110.2660 OW            1 RES     
    6751 HW1          5.9194    13.1620   110.5460 HW1           1 RES     
    6752 HW2          4.6274    12.4720   109.8260 HW2           1 RES     
    6753 OW          32.7024    24.6480   108.5230 OW            1 RES     
    6754 HW1         31.7874    24.2850   108.6960 HW1           1 RES     
    6755 HW2         33.1284    24.1380   107.7760 HW2           1 RES     
    6756 OW          23.0154    37.6490   100.3670 OW            1 RES     
    6757 HW1         22.3204    38.3650   100.4310 HW1           1 RES     
    6758 HW2         23.4574    37.6940    99.4710 HW2           1 RES     
    6759 OW          38.0864    35.6170   114.2220 OW            1 RES     
    6760 HW1         38.5764    35.0880   114.9130 HW1           1 RES     
    6761 HW2         37.2884    35.1020   113.9100 HW2           1 RES     
    6762 OW          30.1434    22.6470   111.6950 OW            1 RES     
    6763 HW1         29.2564    23.0420   111.4580 HW1           1 RES     
    6764 HW2         30.8634    23.3220   111.5330 HW2           1 RES     
    6765 OW          26.0774     1.9890   110.5020 OW            1 RES     
    6766 HW1         25.3924     1.2730   110.6340 HW1           1 RES     
    6767 HW2         26.9254     1.7300   110.9650 HW2           1 RES     
    6768 OW          11.0224    46.5300   113.5530 OW            1 RES     
    6769 HW1         11.0744    45.5570   113.3340 HW1           1 RES     
    6770 HW2         10.1884    46.7110   114.0750 HW2           1 RES     
    6771 OW           6.2024     3.0120   111.5180 OW            1 RES     
    6772 HW1          6.7764     2.4380   110.9350 HW1           1 RES     
    6773 HW2          6.7824     3.6010   112.0800 HW2           1 RES     
    6774 OW           8.7224     4.5760    99.3110 OW            1 RES     
    6775 HW1          8.1674     4.6860   100.1350 HW1           1 RES     
    6776 HW2          9.6924     4.6060    99.5550 HW2           1 RES     
    6777 OW           4.5754    21.5420   101.9900 OW            1 RES     
    6778 HW1          4.8734    21.2860   102.9100 HW1           1 RES     
    6779 HW2          4.4284    20.7160   101.4460 HW2           1 RES     
    6780 OW           1.2764    44.5220   100.5810 OW            1 RES     
    6781 HW1          1.8034    43.8080   100.1220 HW1           1 RES     
    6782 HW2          0.3004    44.3610   100.4370 HW2           1 RES     
    6783 OW          17.1194    34.5440   106.4680 OW            1 RES     
    6784 HW1         17.8224    35.1530   106.8360 HW1           1 RES     
    6785 HW2         17.4814    33.6140   106.4070 HW2           1 RES     
    6786 OW          51.6174    21.8450   103.5610 OW            1 RES     
    6787 HW1         51.0344    21.1530   103.9860 HW1           1 RES     
    6788 HW2         51.7344    22.6140   104.1900 HW2           1 RES     
    6789 OW          51.0424    35.2700   100.4870 OW            1 RES     
    6790 HW1         51.8774    35.7610   100.7330 HW1           1 RES     
    6791 HW2         50.2464    35.8400   100.6930 HW2           1 RES     
    6792 OW          43.7044     2.4950   112.1110 OW            1 RES     
    6793 HW1         42.7164     2.6010   112.0090 HW1           1 RES     
    6794 HW2         44.1364     3.3970   112.1320 HW2           1 RES     
    6795 OW          14.7204    22.9550   109.7140 OW            1 RES     
    6796 HW1         14.4364    22.0200   109.5040 HW1           1 RES     
    6797 HW2         15.6624    22.9500   110.0510 HW2           1 RES     
    6798 OW          56.4644    11.3150   114.8450 OW            1 RES     
    6799 HW1         57.2364    10.7300   115.0910 HW1           1 RES     
    6800 HW2         56.6874    12.2680   115.0520 HW2           1 RES     
    6801 OW           0.3374    34.9280    96.6680 OW            1 RES     
    6802 HW1          1.0024    34.7580    95.9420 HW1           1 RES     
    6803 HW2          0.8024    34.9310    97.5530 HW2           1 RES     
    6804 OW          52.4074    22.8480   117.5610 OW            1 RES     
    6805 HW1         52.4224    21.8630   117.3930 HW1           1 RES     
    6806 HW2         53.3194    23.2270   117.4060 HW2           1 RES     
    6807 OW           0.7064    33.7280   105.3130 OW            1 RES     
    6808 HW1          1.6094    33.7930   104.8900 HW1           1 RES     
    6809 HW2          0.7824    33.2540   106.1910 HW2           1 RES     
    6810 OW          33.9714    13.8040   116.1790 OW            1 RES     
    6811 HW1         34.1144    12.9650   115.6550 HW1           1 RES     
    6812 HW2         33.4484    14.4560   115.6300 HW2           1 RES     
    6813 OW          13.5414    39.6150   114.4090 OW            1 RES     
    6814 HW1         14.4624    39.9130   114.1630 HW1           1 RES     
    6815 HW2         13.0904    39.2250   113.6050 HW2           1 RES     
    6816 OW          36.7314    28.4830   107.2720 OW            1 RES     
    6817 HW1         37.6144    28.9220   107.1110 HW1           1 RES     
    6818 HW2         36.0774    29.1620   107.6090 HW2           1 RES     
    6819 OW          14.1304    49.1760   115.4990 OW            1 RES     
    6820 HW1         14.6354    48.3820   115.8350 HW1           1 RES     
    6821 HW2         13.9254    49.0540   114.5270 HW2           1 RES     
    6822 OW          13.9564    33.2210   100.8390 OW            1 RES     
    6823 HW1         12.9784    33.3290   101.0190 HW1           1 RES     
    6824 HW2         14.1204    32.3310   100.4140 HW2           1 RES     
    6825 OW          21.7504    40.4690   115.9690 OW            1 RES     
    6826 HW1         22.5974    40.0500   115.6430 HW1           1 RES     
    6827 HW2         21.7374    40.4620   116.9690 HW2           1 RES     
    6828 OW           3.3484    37.7760   105.8780 OW            1 RES     
    6829 HW1          3.1924    37.0400   105.2200 HW1           1 RES     
    6830 HW2          3.0794    37.4710   106.7910 HW2           1 RES     
    6831 OW          56.5044    37.8110    99.6020 OW            1 RES     
    6832 HW1         55.8314    38.5110    99.3650 HW1           1 RES     
    6833 HW2         57.2364    38.2220   100.1460 HW2           1 RES     
    6834 OW          44.5284    47.9630    91.2310 OW            1 RES     
    6835 HW1         44.9774    48.6450    91.8070 HW1           1 RES     
    6836 HW2         43.9234    47.3970    91.7920 HW2           1 RES     
    6837 OW          40.8974    12.5300   113.6360 OW            1 RES     
    6838 HW1         41.4324    11.7030   113.4660 HW1           1 RES     
    6839 HW2         41.5084    13.3210   113.6750 HW2           1 RES     
    6840 OW          56.4764    29.0980   112.5520 OW            1 RES     
    6841 HW1         55.8524    28.9520   111.7850 HW1           1 RES     
    6842 HW2         56.3444    28.3760   113.2310 HW2           1 RES     
    6843 OW          16.7354    15.0040   114.2660 OW            1 RES     
    6844 HW1         16.8414    15.1020   115.2550 HW1           1 RES     
    6845 HW2         16.0154    15.6190   113.9450 HW2           1 RES     
    6846 OW           5.7084    43.5540   115.1070 OW            1 RES     
    6847 HW1          6.5194    43.8560   115.6070 HW1           1 RES     
    6848 HW2          5.7574    42.5660   114.9590 HW2           1 RES     
    6849 OW          25.7274     2.9630    92.7340 OW            1 RES     
    6850 HW1         25.1064     3.6040    92.2850 HW1           1 RES     
    6851 HW2         26.3774     2.6020    92.0650 HW2           1 RES     
    6852 OW          46.4424    30.9640   103.1820 OW            1 RES     
    6853 HW1         45.5764    31.4590   103.2390 HW1           1 RES     
    6854 HW2         47.1844    31.5520   103.5060 HW2           1 RES     
    6855 OW          36.4264    46.5610   102.2590 OW            1 RES     
    6856 HW1         37.3634    46.2170   102.3060 HW1           1 RES     
    6857 HW2         36.3864    47.4760   102.6600 HW2           1 RES     
    6858 OW          47.3074    32.7510   113.7240 OW            1 RES     
    6859 HW1         47.0294    33.6730   113.4550 HW1           1 RES     
    6860 HW2         47.0644    32.1040   113.0010 HW2           1 RES     
    6861 OW           3.7454    24.9210   113.1970 OW            1 RES     
    6862 HW1          3.6104    24.5280   114.1060 HW1           1 RES     
    6863 HW2          3.0114    25.5710   113.0020 HW2           1 RES     
    6864 OW           4.7554    39.7170   110.5140 OW            1 RES     
    6865 HW1          5.1924    38.8320   110.3550 HW1           1 RES     
    6866 HW2          4.2074    39.6720   111.3510 HW2           1 RES     
    6867 OW          41.2694    49.1750   112.9820 OW            1 RES     
    6868 HW1         40.3214    48.8670   113.0550 HW1           1 RES     
    6869 HW2         41.8504    48.4040   112.7200 HW2           1 RES     
    6870 OW          33.5234    13.6410   110.6650 OW            1 RES     
    6871 HW1         33.5494    14.4750   110.1150 HW1           1 RES     
    6872 HW2         34.2424    13.0170   110.3590 HW2           1 RES     
    6873 OW          29.7864    47.7650    96.8480 OW            1 RES     
    6874 HW1         29.4224    48.6750    96.6510 HW1           1 RES     
    6875 HW2         30.5724    47.8460    97.4610 HW2           1 RES     
    6876 OW          49.7684     8.3530   107.0980 OW            1 RES     
    6877 HW1         50.0924     8.5720   106.1780 HW1           1 RES     
    6878 HW2         48.7694     8.3010   107.0960 HW2           1 RES     
    6879 OW          26.9044    36.3800   109.3730 OW            1 RES     
    6880 HW1         26.7744    35.6560   108.6950 HW1           1 RES     
    6881 HW2         27.7684    36.2340   109.8550 HW2           1 RES     
    6882 OW          34.4144    21.2710    98.3960 OW            1 RES     
    6883 HW1         34.3414    20.2830    98.2660 HW1           1 RES     
    6884 HW2         35.3794    21.5340    98.4200 HW2           1 RES     
    6885 OW           0.5774    42.5180   104.1560 OW            1 RES     
    6886 HW1          0.0004    43.3340   104.1650 HW1           1 RES     
    6887 HW2          0.0004    41.7010   104.1430 HW2           1 RES     
    6888 OW           5.5214    15.1060   115.2720 OW            1 RES     
    6889 HW1          4.5344    15.0100   115.4010 HW1           1 RES     
    6890 HW2          5.8814    15.7630   115.9350 HW2           1 RES     
    6891 OW          27.1844    18.7610   107.5940 OW            1 RES     
    6892 HW1         27.7354    19.0060   106.7970 HW1           1 RES     
    6893 HW2         26.2474    18.5640   107.3040 HW2           1 RES     
    6894 OW          21.2834    16.2550   104.7490 OW            1 RES     
    6895 HW1         22.2214    16.6010   104.7480 HW1           1 RES     
    6896 HW2         21.2964    15.2550   104.7520 HW2           1 RES     
    6897 OW          34.7324     1.5220    98.0330 OW            1 RES     
    6898 HW1         33.9444     1.0530    98.4310 HW1           1 RES     
    6899 HW2         35.5684     1.2160    98.4910 HW2           1 RES     
    6900 OW          15.2534    35.9030   109.1020 OW            1 RES     
    6901 HW1         16.1494    36.0400   108.6800 HW1           1 RES     
    6902 HW2         14.6204    36.6060   108.7770 HW2           1 RES     
    6903 OW          44.8214    26.7560    97.1560 OW            1 RES     
    6904 HW1         43.8264    26.8440    97.1740 HW1           1 RES     
    6905 HW2         45.2054    27.4270    96.5220 HW2           1 RES     
    6906 OW          26.8504     0.0000   112.6880 OW            1 RES     
    6907 HW1         26.0734     0.6290   112.6700 HW1           1 RES     
    6908 HW2         27.7024     0.5200   112.6300 HW2           1 RES     
    6909 OW          47.2414    38.4890    93.6500 OW            1 RES     
    6910 HW1         47.4494    38.5180    92.6730 HW1           1 RES     
    6911 HW2         47.2644    39.4160    94.0240 HW2           1 RES     
    6912 OW          37.7504    40.1520   107.0630 OW            1 RES     
    6913 HW1         38.4824    39.5390   107.3610 HW1           1 RES     
    6914 HW2         37.7884    40.2590   106.0700 HW2           1 RES     
    6915 OW          40.3554    11.6620    95.3080 OW            1 RES     
    6916 HW1         41.3004    11.5190    95.0150 HW1           1 RES     
    6917 HW2         40.3294    11.7960    96.2990 HW2           1 RES     
    6918 OW          36.9674     3.5730   112.6110 OW            1 RES     
    6919 HW1         37.9654     3.5350   112.6260 HW1           1 RES     
    6920 HW2         36.5964     2.6450   112.6440 HW2           1 RES     
    6921 OW          23.0304     8.6060   117.3910 OW            1 RES     
    6922 HW1         22.3554     7.8690   117.3890 HW1           1 RES     
    6923 HW2         23.9494     8.2170   117.3330 HW2           1 RES     
    6924 OW          16.6574    33.9180    92.9170 OW            1 RES     
    6925 HW1         16.6844    32.9470    92.6830 HW1           1 RES     
    6926 HW2         17.5904    34.2570    93.0420 HW2           1 RES     
    6927 OW           0.2684    25.4720    99.7510 OW            1 RES     
    6928 HW1          0.8754    26.2420    99.9430 HW1           1 RES     
    6929 HW2          0.1794    24.9050   100.5700 HW2           1 RES     
    6930 OW           3.8734    37.2180    95.0830 OW            1 RES     
    6931 HW1          3.5794    36.3610    95.5040 HW1           1 RES     
    6932 HW2          3.4464    37.9880    95.5590 HW2           1 RES     
    6933 OW          50.3734    12.7890   104.0530 OW            1 RES     
    6934 HW1         49.5824    12.1930   104.1880 HW1           1 RES     
    6935 HW2         50.2154    13.6630   104.5140 HW2           1 RES     
    6936 OW          44.2044     4.2600   106.2430 OW            1 RES     
    6937 HW1         43.2654     4.2180   106.5830 HW1           1 RES     
    6938 HW2         44.6774     3.4070   106.4650 HW2           1 RES     
    6939 OW          56.6954    30.7010   102.9990 OW            1 RES     
    6940 HW1         55.8854    30.1160   102.9630 HW1           1 RES     
    6941 HW2         56.4144    31.6600   103.0060 HW2           1 RES     
    6942 OW          48.9224     9.8380    98.9830 OW            1 RES     
    6943 HW1         48.3334     9.1470    99.3990 HW1           1 RES     
    6944 HW2         49.7094     9.3930    98.5550 HW2           1 RES     
    6945 OW          11.4184    22.1320   108.1330 OW            1 RES     
    6946 HW1         10.4314    22.0740   108.2780 HW1           1 RES     
    6947 HW2         11.8034    21.2100   108.0840 HW2           1 RES     
    6948 OW           6.8514     3.6750   117.3980 OW            1 RES     
    6949 HW1          6.2724     2.8770   117.5630 HW1           1 RES     
    6950 HW2          7.7284     3.3790   117.0190 HW2           1 RES     
    6951 OW          48.4644    22.2310   102.4650 OW            1 RES     
    6952 HW1         47.9844    21.3610   102.3590 HW1           1 RES     
    6953 HW2         49.2474    22.1090   103.0750 HW2           1 RES     
    6954 OW          33.2254    45.3550   100.8030 OW            1 RES     
    6955 HW1         33.9744    44.7100   100.9440 HW1           1 RES     
    6956 HW2         33.5954    46.2440   100.5320 HW2           1 RES     
    6957 OW          20.0924    39.2170   100.0110 OW            1 RES     
    6958 HW1         19.5544    39.7860    99.3900 HW1           1 RES     
    6959 HW2         20.5554    39.7980   100.6810 HW2           1 RES     
    6960 OW          53.5164    16.4980   104.1480 OW            1 RES     
    6961 HW1         53.6304    15.7010   103.5560 HW1           1 RES     
    6962 HW2         52.7114    16.3710   104.7270 HW2           1 RES     
    6963 OW          42.1554     0.3690    95.4690 OW            1 RES     
    6964 HW1         41.6764     0.0010    96.2650 HW1           1 RES     
    6965 HW2         41.6414     1.1430    95.0980 HW2           1 RES     
    6966 OW          35.0674    33.2000   112.1300 OW            1 RES     
    6967 HW1         35.1234    32.9710   113.1020 HW1           1 RES     
    6968 HW2         35.3614    34.1460   111.9920 HW2           1 RES     
    6969 OW          42.4734     6.1210   114.6010 OW            1 RES     
    6970 HW1         41.9014     6.2930   113.8000 HW1           1 RES     
    6971 HW2         41.9624     5.5760   115.2660 HW2           1 RES     
    6972 OW          56.0054    26.1190   110.0600 OW            1 RES     
    6973 HW1         56.3054    25.1660   110.0780 HW1           1 RES     
    6974 HW2         55.0384    26.1610   109.8090 HW2           1 RES     
    6975 OW          37.9244     1.3740   104.4880 OW            1 RES     
    6976 HW1         38.4584     0.7290   105.0340 HW1           1 RES     
    6977 HW2         37.5984     2.1170   105.0740 HW2           1 RES     
    6978 OW          28.9794     1.8980   109.9500 OW            1 RES     
    6979 HW1         29.1204     1.8770   110.9390 HW1           1 RES     
    6980 HW2         28.6234     2.7930   109.6820 HW2           1 RES     
    6981 OW          53.9344    20.2540    94.2720 OW            1 RES     
    6982 HW1         53.8344    20.3600    93.2840 HW1           1 RES     
    6983 HW2         53.6674    19.3270    94.5370 HW2           1 RES     
    6984 OW          43.1244     7.6720   102.4090 OW            1 RES     
    6985 HW1         43.2974     7.0470   101.6480 HW1           1 RES     
    6986 HW2         43.1454     7.1640   103.2700 HW2           1 RES     
    6987 OW          37.6984    40.6610   113.0720 OW            1 RES     
    6988 HW1         38.4714    40.0270   113.0610 HW1           1 RES     
    6989 HW2         36.8434    40.1440   113.1200 HW2           1 RES     
    6990 OW          40.6544    16.5800    96.7920 OW            1 RES     
    6991 HW1         41.1714    15.7910    97.1210 HW1           1 RES     
    6992 HW2         40.4934    16.4890    95.8090 HW2           1 RES     
    6993 OW          53.5944    12.8890    94.6790 OW            1 RES     
    6994 HW1         53.9154    12.9060    93.7330 HW1           1 RES     
    6995 HW2         54.1984    13.4480    95.2470 HW2           1 RES     
    6996 OW          17.4244     2.3830   113.3130 OW            1 RES     
    6997 HW1         17.8554     3.0560   112.7120 HW1           1 RES     
    6998 HW2         16.4934     2.6770   113.5310 HW2           1 RES     
    6999 OW          55.3474     7.7230    92.5600 OW            1 RES     
    7000 HW1         56.3374     7.5840    92.5820 HW1           1 RES     
    7001 HW2         55.0134     7.5980    91.6260 HW2           1 RES     
    7002 OW          54.6914    33.5280   109.6970 OW            1 RES     
    7003 HW1         55.0984    33.2320   110.5600 HW1           1 RES     
    7004 HW2         54.8074    32.8100   109.0100 HW2           1 RES     
    7005 OW          22.7534    13.2080   113.7440 OW            1 RES     
    7006 HW1         23.4584    13.4190   113.0680 HW1           1 RES     
    7007 HW2         22.1554    12.4880   113.3890 HW2           1 RES     
    7008 OW          44.0844    18.0120   102.8490 OW            1 RES     
    7009 HW1         43.2214    18.3930   102.5190 HW1           1 RES     
    7010 HW2         44.0964    18.0300   103.8490 HW2           1 RES     
    7011 OW          25.5984    21.0460    96.1460 OW            1 RES     
    7012 HW1         26.5234    21.1450    96.5120 HW1           1 RES     
    7013 HW2         25.2734    20.1140    96.3070 HW2           1 RES     
    7014 OW          37.6964    40.2280    94.8530 OW            1 RES     
    7015 HW1         38.3874    39.5700    95.1480 HW1           1 RES     
    7016 HW2         37.8874    40.5160    93.9140 HW2           1 RES     
    7017 OW          24.9214     8.4830    98.7590 OW            1 RES     
    7018 HW1         24.3054     9.2000    98.4330 HW1           1 RES     
    7019 HW2         24.5024     7.5880    98.6040 HW2           1 RES     
    7020 OW           2.8894    43.0280   104.8970 OW            1 RES     
    7021 HW1          2.3564    43.2490   105.7120 HW1           1 RES     
    7022 HW2          2.8524    42.0420   104.7300 HW2           1 RES     
    7023 OW          38.3494    46.2800   104.6210 OW            1 RES     
    7024 HW1         38.9544    46.3090   103.8260 HW1           1 RES     
    7025 HW2         37.7134    45.5130   104.5280 HW2           1 RES     
    7026 OW           1.7174    16.7030   109.4190 OW            1 RES     
    7027 HW1          2.5214    16.1980   109.7300 HW1           1 RES     
    7028 HW2          1.9124    17.6830   109.4320 HW2           1 RES     
    7029 OW           8.7774    33.9590    91.0830 OW            1 RES     
    7030 HW1          8.1814    33.9250    90.2820 HW1           1 RES     
    7031 HW2          9.7254    33.8080    90.8010 HW2           1 RES     
    7032 OW          25.8964    14.2790   104.7850 OW            1 RES     
    7033 HW1         25.9424    14.4700   103.8060 HW1           1 RES     
    7034 HW2         26.8214    14.2470   105.1630 HW2           1 RES     
    7035 OW          49.2334     7.3350   100.5560 OW            1 RES     
    7036 HW1         49.6244     6.4290   100.3990 HW1           1 RES     
    7037 HW2         48.5534     7.2830   101.2880 HW2           1 RES     
    7038 OW          15.6954    26.2960    99.1250 OW            1 RES     
    7039 HW1         15.9874    25.3570    98.9440 HW1           1 RES     
    7040 HW2         16.4894    26.8510    99.3720 HW2           1 RES     
    7041 OW          39.4774    29.0120   105.6220 OW            1 RES     
    7042 HW1         39.6264    28.1350   106.0770 HW1           1 RES     
    7043 HW2         39.5644    29.7530   106.2880 HW2           1 RES     
    7044 OW          36.3924    14.9650   116.0190 OW            1 RES     
    7045 HW1         36.9334    14.7750   115.2000 HW1           1 RES     
    7046 HW2         36.7904    15.7400   116.5090 HW2           1 RES     
    7047 OW          28.3484    46.1130    96.4910 OW            1 RES     
    7048 HW1         27.6854    45.7570    97.1490 HW1           1 RES     
    7049 HW2         27.9074    46.7960    95.9090 HW2           1 RES     
    7050 OW           3.7004    48.1020   102.9890 OW            1 RES     
    7051 HW1          3.0264    48.0600   102.2520 HW1           1 RES     
    7052 HW2          4.4654    47.4930   102.7760 HW2           1 RES     
    7053 OW          10.9194    33.8710   109.1950 OW            1 RES     
    7054 HW1         10.2784    33.1050   109.2350 HW1           1 RES     
    7055 HW2         10.4184    34.7310   109.2930 HW2           1 RES     
    7056 OW          15.5694    11.1690    92.3820 OW            1 RES     
    7057 HW1         16.5094    11.4490    92.5750 HW1           1 RES     
    7058 HW2         14.9364    11.7450    92.8980 HW2           1 RES     
    7059 OW          48.4384     2.5380    97.1060 OW            1 RES     
    7060 HW1         47.6824     2.6080    97.7560 HW1           1 RES     
    7061 HW2         48.8614     1.6350    97.1820 HW2           1 RES     
    7062 OW          46.1814    13.5620   109.3620 OW            1 RES     
    7063 HW1         47.1034    13.2070   109.5140 HW1           1 RES     
    7064 HW2         45.5834    12.8190   109.0600 HW2           1 RES     
    7065 OW          52.9284    41.4850   100.2180 OW            1 RES     
    7066 HW1         53.0954    42.3120    99.6810 HW1           1 RES     
    7067 HW2         53.5024    40.7420    99.8740 HW2           1 RES     
    7068 OW          27.4014    35.1510    95.9790 OW            1 RES     
    7069 HW1         26.4124    35.2880    96.0260 HW1           1 RES     
    7070 HW2         27.8564    36.0360    95.8830 HW2           1 RES     
    7071 OW          10.6734    41.8330   109.9930 OW            1 RES     
    7072 HW1         10.9474    40.9850   109.5410 HW1           1 RES     
    7073 HW2          9.6944    41.8010   110.1970 HW2           1 RES     
    7074 OW          48.4384    19.8900    99.6860 OW            1 RES     
    7075 HW1         49.2174    20.4820    99.4830 HW1           1 RES     
    7076 HW2         48.2424    19.9210   100.6670 HW2           1 RES     
    7077 OW           8.1324    39.1410    96.0290 OW            1 RES     
    7078 HW1          8.5444    38.2640    96.2740 HW1           1 RES     
    7079 HW2          8.1094    39.7360    96.8330 HW2           1 RES     
    7080 OW          56.1314    20.9290    93.2350 OW            1 RES     
    7081 HW1         57.0534    20.9340    92.8510 HW1           1 RES     
    7082 HW2         55.8304    21.8700    93.3940 HW2           1 RES     
    7083 OW          34.6584    43.3230    99.1800 OW            1 RES     
    7084 HW1         35.2454    43.9710    98.6950 HW1           1 RES     
    7085 HW2         35.2174    42.5800    99.5510 HW2           1 RES     
    7086 OW          23.7844    26.7300   114.3130 OW            1 RES     
    7087 HW1         23.2244    26.0350   113.8630 HW1           1 RES     
    7088 HW2         23.1914    27.4140   114.7370 HW2           1 RES     
    7089 OW          43.3364    41.0380    97.1740 OW            1 RES     
    7090 HW1         42.3724    40.7720    97.1940 HW1           1 RES     
    7091 HW2         43.7394    40.7650    96.3000 HW2           1 RES     
    7092 OW           8.7684    17.9570   111.3470 OW            1 RES     
    7093 HW1          8.2484    18.1040   110.5070 HW1           1 RES     
    7094 HW2          8.5784    17.0400   111.7010 HW2           1 RES     
    7095 OW          43.9324    40.1950   107.7300 OW            1 RES     
    7096 HW1         44.9064    40.3860   107.8460 HW1           1 RES     
    7097 HW2         43.8074    39.2370   107.4720 HW2           1 RES     
    7098 OW          44.2144    40.4720   101.7420 OW            1 RES     
    7099 HW1         43.7624    41.2460   101.3010 HW1           1 RES     
    7100 HW2         45.0704    40.2690   101.2660 HW2           1 RES     
    7101 OW          56.7134    34.4140   109.5940 OW            1 RES     
    7102 HW1         57.1994    33.7670   110.1800 HW1           1 RES     
    7103 HW2         57.1764    34.4760   108.7090 HW2           1 RES     
    7104 OW          43.4324     1.0990   106.0710 OW            1 RES     
    7105 HW1         43.2344     0.2740   105.5440 HW1           1 RES     
    7106 HW2         43.3894     1.8980   105.4700 HW2           1 RES     
    7107 OW          46.5584    35.2480    97.4720 OW            1 RES     
    7108 HW1         46.4024    35.8850    98.2260 HW1           1 RES     
    7109 HW2         47.0934    35.7000    96.7580 HW2           1 RES     
    7110 OW          39.8174    14.2350   107.2990 OW            1 RES     
    7111 HW1         39.2214    13.4380   107.2100 HW1           1 RES     
    7112 HW2         39.2634    15.0680   107.2840 HW2           1 RES     
    7113 OW          22.9314     7.1000   105.7550 OW            1 RES     
    7114 HW1         22.0364     6.6590   105.7120 HW1           1 RES     
    7115 HW2         22.8164     8.0930   105.7290 HW2           1 RES     
    7116 OW          50.1124    28.2380    96.1240 OW            1 RES     
    7117 HW1         49.2474    28.2180    95.6240 HW1           1 RES     
    7118 HW2         50.8004    27.7130    95.6220 HW2           1 RES     
    7119 OW           0.3734    32.7260   115.8790 OW            1 RES     
    7120 HW1          1.2294    32.6520   116.3880 HW1           1 RES     
    7121 HW2          0.0004    33.6480   115.9860 HW2           1 RES     
    7122 OW           5.5394    25.3330   104.5200 OW            1 RES     
    7123 HW1          6.3004    25.9030   104.2140 HW1           1 RES     
    7124 HW2          4.7804    25.9170   104.8110 HW2           1 RES     
    7125 OW           4.8824     6.8890   107.3090 OW            1 RES     
    7126 HW1          4.8504     7.8870   107.3490 HW1           1 RES     
    7127 HW2          4.0254     6.5430   106.9270 HW2           1 RES     
    7128 OW          45.2964    10.5770   109.0800 OW            1 RES     
    7129 HW1         44.3734    10.9570   109.0410 HW1           1 RES     
    7130 HW2         45.2444     9.5800   109.1420 HW2           1 RES     
    7131 OW          56.1094    21.2610    98.6780 OW            1 RES     
    7132 HW1         55.9934    21.3540    99.6660 HW1           1 RES     
    7133 HW2         56.9444    20.7430    98.4870 HW2           1 RES     
    7134 OW          36.9774    22.6220   117.4200 OW            1 RES     
    7135 HW1         36.3244    22.9960   116.7620 HW1           1 RES     
    7136 HW2         36.7964    21.6480   117.5540 HW2           1 RES     
    7137 OW          48.8054    18.7550    97.2530 OW            1 RES     
    7138 HW1         49.8034    18.7830    97.2110 HW1           1 RES     
    7139 HW2         48.4534    18.2310    96.4780 HW2           1 RES     
    7140 OW          11.6724    28.6580    94.5500 OW            1 RES     
    7141 HW1         11.3944    27.7180    94.7440 HW1           1 RES     
    7142 HW2         12.3724    28.6580    93.8340 HW2           1 RES     
    7143 OW          11.4724    23.3580   110.6760 OW            1 RES     
    7144 HW1         11.6754    22.4490   110.3120 HW1           1 RES     
    7145 HW2         12.3264    23.8550   110.8300 HW2           1 RES     
    7146 OW          38.1934    44.0120    93.4250 OW            1 RES     
    7147 HW1         38.9524    44.1600    94.0580 HW1           1 RES     
    7148 HW2         37.3354    43.9710    93.9360 HW2           1 RES     
    7149 OW          55.6304    42.7710    95.8570 OW            1 RES     
    7150 HW1         55.0354    42.1330    96.3460 HW1           1 RES     
    7151 HW2         55.0754    43.4890    95.4360 HW2           1 RES     
    7152 OW          18.1834    36.6340   109.4210 OW            1 RES     
    7153 HW1         18.5984    37.5430   109.4320 HW1           1 RES     
    7154 HW2         18.8844    35.9450   109.6080 HW2           1 RES     
    7155 OW          50.8814    12.5830   108.9940 OW            1 RES     
    7156 HW1         51.8264    12.2770   108.8830 HW1           1 RES     
    7157 HW2         50.2724    11.7900   109.0050 HW2           1 RES     
    7158 OW          14.5054    40.8240    92.8500 OW            1 RES     
    7159 HW1         15.1784    40.3410    92.2920 HW1           1 RES     
    7160 HW2         14.7834    40.7930    93.8100 HW2           1 RES     
    7161 OW           5.7884    28.2620   115.2850 OW            1 RES     
    7162 HW1          6.7584    28.3620   115.0630 HW1           1 RES     
    7163 HW2          5.3314    27.7480   114.5600 HW2           1 RES     
    7164 OW          10.9234    24.5480   115.3650 OW            1 RES     
    7165 HW1         10.3284    25.2700   115.0120 HW1           1 RES     
    7166 HW2         11.8304    24.9260   115.5550 HW2           1 RES     
    7167 OW          33.5964    38.3250   112.3770 OW            1 RES     
    7168 HW1         34.5514    38.1490   112.6120 HW1           1 RES     
    7169 HW2         33.5524    38.8490   111.5260 HW2           1 RES     
    7170 OW           0.7184    42.3480    96.7380 OW            1 RES     
    7171 HW1          0.5174    41.4570    97.1430 HW1           1 RES     
    7172 HW2          0.1014    42.5110    95.9680 HW2           1 RES     
    7173 OW           1.0604    28.0140   103.2740 OW            1 RES     
    7174 HW1          0.6344    28.7410   103.8120 HW1           1 RES     
    7175 HW2          0.3514    27.4190   102.8960 HW2           1 RES     
    7176 OW          52.8734    47.2090   108.6970 OW            1 RES     
    7177 HW1         53.7954    46.8340   108.6140 HW1           1 RES     
    7178 HW2         52.2214    46.4640   108.8410 HW2           1 RES     
    7179 OW          16.8494    38.6050    95.8820 OW            1 RES     
    7180 HW1         16.9124    37.9610    95.1200 HW1           1 RES     
    7181 HW2         16.6664    39.5230    95.5290 HW2           1 RES     
    7182 OW           9.4854    36.1980   111.1240 OW            1 RES     
    7183 HW1          9.5034    35.2960   111.5540 HW1           1 RES     
    7184 HW2          9.2634    36.8910   111.8100 HW2           1 RES     
    7185 OW          38.2964    26.9510    96.2960 OW            1 RES     
    7186 HW1         38.8264    26.7010    97.1060 HW1           1 RES     
    7187 HW2         38.1554    26.1410    95.7260 HW2           1 RES     
    7188 OW           9.1444    37.4100   115.3090 OW            1 RES     
    7189 HW1          9.7214    37.5440   114.5050 HW1           1 RES     
    7190 HW2          8.1824    37.4010   115.0330 HW2           1 RES     
    7191 OW           0.4894    22.7120   112.6900 OW            1 RES     
    7192 HW1          0.1544    22.8130   113.6260 HW1           1 RES     
    7193 HW2          1.3874    22.2720   112.7020 HW2           1 RES     
    7194 OW          54.8794     5.5200   101.7660 OW            1 RES     
    7195 HW1         53.9424     5.1830   101.6810 HW1           1 RES     
    7196 HW2         54.9324     6.4520   101.4080 HW2           1 RES     
    7197 OW           6.2824    30.7400   117.4430 OW            1 RES     
    7198 HW1          6.3024    31.4370   116.7270 HW1           1 RES     
    7199 HW2          6.7104    29.9020   117.1060 HW2           1 RES     
    7200 OW          55.5564    27.4890   101.4880 OW            1 RES     
    7201 HW1         54.6904    27.3660   101.0060 HW1           1 RES     
    7202 HW2         55.8344    28.4490   101.4380 HW2           1 RES     
    7203 OW          18.6904    21.4600    91.8690 OW            1 RES     
    7204 HW1         18.8454    22.4190    91.6360 HW1           1 RES     
    7205 HW2         19.4784    20.9150    91.5810 HW2           1 RES     
    7206 OW          12.6534    23.9790   108.4910 OW            1 RES     
    7207 HW1         12.5734    24.8980   108.8770 HW1           1 RES     
    7208 HW2         13.3744    23.9700   107.7980 HW2           1 RES     
    7209 OW          48.0714    43.5660    94.8210 OW            1 RES     
    7210 HW1         49.0674    43.5200    94.8890 HW1           1 RES     
    7211 HW2         47.7394    42.7990    94.2710 HW2           1 RES     
    7212 OW          27.4624    19.8250   109.5010 OW            1 RES     
    7213 HW1         26.5344    19.4670   109.6050 HW1           1 RES     
    7214 HW2         27.4224    20.7550   109.1360 HW2           1 RES     
    7215 OW          53.3724    48.2010   101.8770 OW            1 RES     
    7216 HW1         53.5464    48.4760   102.8220 HW1           1 RES     
    7217 HW2         53.9574    48.7300   101.2620 HW2           1 RES     
    7218 OW           8.3834    22.8460   108.0480 OW            1 RES     
    7219 HW1          8.6074    23.8110   108.1820 HW1           1 RES     
    7220 HW2          7.4284    22.7610   107.7640 HW2           1 RES     
    7221 OW          21.0594    18.7970   104.0070 OW            1 RES     
    7222 HW1         20.3224    18.1230   103.9710 HW1           1 RES     
    7223 HW2         20.6734    19.7170   103.9410 HW2           1 RES     
    7224 OW          28.6354    19.0450   112.9450 OW            1 RES     
    7225 HW1         28.6794    19.9710   113.3180 HW1           1 RES     
    7226 HW2         29.5454    18.6310   112.9700 HW2           1 RES     
    7227 OW          13.5064     0.5710    96.5320 OW            1 RES     
    7228 HW1         14.1854     0.0870    97.0830 HW1           1 RES     
    7229 HW2         13.2474     0.0050    95.7490 HW2           1 RES     
    7230 OW          29.7774    48.0970   116.2360 OW            1 RES     
    7231 HW1         29.7384    49.0850   116.0910 HW1           1 RES     
    7232 HW2         29.0794    47.6500   115.6770 HW2           1 RES     
    7233 OW          10.1244    39.0750    97.5990 OW            1 RES     
    7234 HW1         10.8634    38.4610    97.8740 HW1           1 RES     
    7235 HW2         10.4984    39.8250    97.0530 HW2           1 RES     
    7236 OW          11.0794    18.6290   102.9230 OW            1 RES     
    7237 HW1         11.1424    18.3220   103.8720 HW1           1 RES     
    7238 HW2         10.1194    18.7710   102.6800 HW2           1 RES     
    7239 OW          32.8904    46.7410   115.0070 OW            1 RES     
    7240 HW1         32.5144    45.8390   114.7970 HW1           1 RES     
    7241 HW2         32.1624    47.3340   115.3510 HW2           1 RES     
    7242 OW          18.9704    13.5370   108.4960 OW            1 RES     
    7243 HW1         18.7824    14.4630   108.1700 HW1           1 RES     
    7244 HW2         19.8214    13.5350   109.0210 HW2           1 RES     
    7245 OW          36.2684    26.8100   104.5740 OW            1 RES     
    7246 HW1         37.1314    26.3930   104.8570 HW1           1 RES     
    7247 HW2         35.9964    27.5020   105.2440 HW2           1 RES     
    7248 OW          54.0774    12.5260   105.5450 OW            1 RES     
    7249 HW1         53.8484    11.7430   106.1230 HW1           1 RES     
    7250 HW2         54.8524    12.2930   104.9580 HW2           1 RES     
    7251 OW          22.9104    36.6560   112.2280 OW            1 RES     
    7252 HW1         23.7174    37.1090   112.6040 HW1           1 RES     
    7253 HW2         22.9244    35.6870   112.4790 HW2           1 RES     
    7254 OW          23.7204    37.0820   109.3820 OW            1 RES     
    7255 HW1         23.1174    36.5100   109.9360 HW1           1 RES     
    7256 HW2         24.6724    36.8340   109.5590 HW2           1 RES     
    7257 OW          35.4414     2.3000    95.0960 OW            1 RES     
    7258 HW1         34.5574     1.8960    94.8630 HW1           1 RES     
    7259 HW2         36.0884     1.5740    95.3330 HW2           1 RES     
    7260 OW          12.8744    36.5360   111.8360 OW            1 RES     
    7261 HW1         11.8864    36.6410   111.9450 HW1           1 RES     
    7262 HW2         13.1114    36.5930   110.8660 HW2           1 RES     
    7263 OW          52.2144    30.5500   116.8980 OW            1 RES     
    7264 HW1         52.9604    30.4920   117.5610 HW1           1 RES     
    7265 HW2         51.4644    31.0870   117.2860 HW2           1 RES     
    7266 OW          37.0014    34.4120   104.8540 OW            1 RES     
    7267 HW1         37.9854    34.3780   105.0260 HW1           1 RES     
    7268 HW2         36.6914    33.5270   104.5060 HW2           1 RES     
    7269 OW          32.0164    46.9370   105.1730 OW            1 RES     
    7270 HW1         32.7614    46.2720   105.2170 HW1           1 RES     
    7271 HW2         32.3914    47.8620   105.2260 HW2           1 RES     
    7272 OW          56.0874     2.4910   116.9370 OW            1 RES     
    7273 HW1         55.5274     3.0520   117.5470 HW1           1 RES     
    7274 HW2         55.5344     2.1870   116.1610 HW2           1 RES     
    7275 OW           1.2214    26.2800    91.3380 OW            1 RES     
    7276 HW1          1.9114    25.5600    91.4100 HW1           1 RES     
    7277 HW2          0.5504    26.0300    90.6400 HW2           1 RES     
    7278 OW          26.9074    32.5190    90.7470 OW            1 RES     
    7279 HW1         27.7744    32.7270    90.2950 HW1           1 RES     
    7280 HW2         26.8874    31.5530    91.0030 HW2           1 RES     
    7281 OW          30.3404    15.7330   112.3850 OW            1 RES     
    7282 HW1         30.8604    16.0410   113.1810 HW1           1 RES     
    7283 HW2         30.9554    15.2810   111.7390 HW2           1 RES     
    7284 OW          23.4894    35.3570   107.8630 OW            1 RES     
    7285 HW1         24.3744    34.9220   108.0210 HW1           1 RES     
    7286 HW2         22.8324    34.6720   107.5450 HW2           1 RES     
    7287 OW           9.3404     1.4540   117.2090 OW            1 RES     
    7288 HW1          8.3814     1.1720   117.2080 HW1           1 RES     
    7289 HW2          9.9144     0.6860   116.9230 HW2           1 RES     
    7290 OW          48.8934    34.7480   114.2740 OW            1 RES     
    7291 HW1         48.6124    34.0770   114.9590 HW1           1 RES     
    7292 HW2         48.2364    35.5020   114.2550 HW2           1 RES     
    7293 OW           0.6554     2.2320    93.3170 OW            1 RES     
    7294 HW1          0.6634     1.9440    92.3600 HW1           1 RES     
    7295 HW2          0.6664     3.2310    93.3650 HW2           1 RES     
    7296 OW          35.5734    34.5190   106.7130 OW            1 RES     
    7297 HW1         35.7014    34.3200   107.6840 HW1           1 RES     
    7298 HW2         34.6074    34.4110   106.4750 HW2           1 RES     
    7299 OW          15.2264     4.0480    96.7340 OW            1 RES     
    7300 HW1         14.4344     4.3740    97.2490 HW1           1 RES     
    7301 HW2         15.1314     4.3120    95.7730 HW2           1 RES     
    7302 OW          51.5804    31.6660    96.2560 OW            1 RES     
    7303 HW1         51.9824    30.8780    95.7910 HW1           1 RES     
    7304 HW2         50.6354    31.4580    96.5090 HW2           1 RES     
    7305 OW          24.8504    12.1480   107.1640 OW            1 RES     
    7306 HW1         24.6784    13.1070   106.9410 HW1           1 RES     
    7307 HW2         23.9834    11.6490   107.1800 HW2           1 RES     
    7308 OW          47.3854    22.2760   106.9770 OW            1 RES     
    7309 HW1         48.0284    21.5450   107.2070 HW1           1 RES     
    7310 HW2         47.5524    22.5840   106.0400 HW2           1 RES     
    7311 OW          25.4764    44.4370   115.0990 OW            1 RES     
    7312 HW1         24.9064    43.7180   114.7040 HW1           1 RES     
    7313 HW2         24.8924    45.1640   115.4610 HW2           1 RES     
    7314 OW          25.0334     5.8100   102.2010 OW            1 RES     
    7315 HW1         25.4274     6.0080   101.3050 HW1           1 RES     
    7316 HW2         24.7174     6.6600   102.6220 HW2           1 RES     
    7317 OW          51.7724    24.4850   108.3020 OW            1 RES     
    7318 HW1         50.9034    24.7750   108.7010 HW1           1 RES     
    7319 HW2         51.6794    24.4240   107.3080 HW2           1 RES     
    7320 OW          23.3924    43.5450   105.8710 OW            1 RES     
    7321 HW1         23.5284    43.1310   104.9710 HW1           1 RES     
    7322 HW2         24.1044    44.2290   106.0350 HW2           1 RES     
    7323 OW          12.3824    20.9430   113.8290 OW            1 RES     
    7324 HW1         12.4234    20.1120   114.3830 HW1           1 RES     
    7325 HW2         11.6064    21.5020   114.1210 HW2           1 RES     
    7326 OW          20.5884    43.4830   106.2340 OW            1 RES     
    7327 HW1         21.2414    43.9950   105.6770 HW1           1 RES     
    7328 HW2         20.5674    42.5300   105.9310 HW2           1 RES     
    7329 OW           9.0054    37.5920   101.4870 OW            1 RES     
    7330 HW1          8.5244    38.3840   101.1140 HW1           1 RES     
    7331 HW2          8.7324    36.7700   100.9870 HW2           1 RES     
    7332 OW          43.5704     6.5600    94.4580 OW            1 RES     
    7333 HW1         43.2684     5.8270    93.8490 HW1           1 RES     
    7334 HW2         42.8294     7.2200    94.5790 HW2           1 RES     
    7335 OW          25.6884    19.6730    91.0890 OW            1 RES     
    7336 HW1         26.6624    19.5080    90.9370 HW1           1 RES     
    7337 HW2         25.3404    19.0190    91.7600 HW2           1 RES     
    7338 OW          18.4464    27.6730    93.6120 OW            1 RES     
    7339 HW1         18.7294    27.4420    92.6820 HW1           1 RES     
    7340 HW2         18.3684    26.8360    94.1550 HW2           1 RES     
    7341 OW          50.4844    27.8860   104.4910 OW            1 RES     
    7342 HW1         49.5394    27.6050   104.6560 HW1           1 RES     
    7343 HW2         50.7484    28.5800   105.1610 HW2           1 RES     
    7344 OW          36.7844    46.6210    93.6340 OW            1 RES     
    7345 HW1         37.6324    46.1710    93.9120 HW1           1 RES     
    7346 HW2         36.6654    46.5290    92.6450 HW2           1 RES     
    7347 OW           6.0084     4.6960   104.8280 OW            1 RES     
    7348 HW1          6.6884     5.4160   104.9640 HW1           1 RES     
    7349 HW2          5.1194     5.1090   104.6280 HW2           1 RES     
    7350 OW           5.1554    24.7470    99.1820 OW            1 RES     
    7351 HW1          5.9204    24.1980    98.8470 HW1           1 RES     
    7352 HW2          5.1234    25.6140    98.6840 HW2           1 RES     
    7353 OW          21.4664    15.2420   107.0300 OW            1 RES     
    7354 HW1         20.9464    15.3000   107.8820 HW1           1 RES     
    7355 HW2         21.5914    14.2820   106.7800 HW2           1 RES     
    7356 OW          15.9454    43.5670   106.0640 OW            1 RES     
    7357 HW1         15.3174    44.3310   105.9200 HW1           1 RES     
    7358 HW2         16.8884    43.8870   105.9690 HW2           1 RES     
    7359 OW           1.4974    27.1860   108.6350 OW            1 RES     
    7360 HW1          1.4744    27.6880   107.7710 HW1           1 RES     
    7361 HW2          0.6604    26.6470   108.7310 HW2           1 RES     
    7362 OW          24.9074    43.5520   108.2660 OW            1 RES     
    7363 HW1         25.9044    43.4990   108.2980 HW1           1 RES     
    7364 HW2         24.6234    44.5110   108.2700 HW2           1 RES     
    7365 OW          50.3774    40.8330   104.5340 OW            1 RES     
    7366 HW1         49.5104    41.3080   104.3870 HW1           1 RES     
    7367 HW2         51.0094    41.0540   103.7920 HW2           1 RES     
    7368 OW          26.9434     6.0310   104.7510 OW            1 RES     
    7369 HW1         26.7354     5.6580   103.8470 HW1           1 RES     
    7370 HW2         27.0784     7.0200   104.6800 HW2           1 RES     
    7371 OW          51.8854    30.6960   101.9760 OW            1 RES     
    7372 HW1         52.7464    30.6950   101.4700 HW1           1 RES     
    7373 HW2         51.8544    31.4920   102.5810 HW2           1 RES     
    7374 OW          22.0464    18.8090   116.1620 OW            1 RES     
    7375 HW1         21.3084    19.4830   116.1520 HW1           1 RES     
    7376 HW2         22.9214    19.2730   116.3040 HW2           1 RES     
    7377 OW          14.8564    40.9050    96.2700 OW            1 RES     
    7378 HW1         13.9544    40.4750    96.2480 HW1           1 RES     
    7379 HW2         14.7674    41.8780    96.0530 HW2           1 RES     
    7380 OW          16.3044    48.7820   112.1090 OW            1 RES     
    7381 HW1         16.5704    48.2930   111.2800 HW1           1 RES     
    7382 HW2         15.3574    49.0920   112.0250 HW2           1 RES     
    7383 OW          44.9674    11.0360   114.5930 OW            1 RES     
    7384 HW1         45.8214    10.5380   114.7350 HW1           1 RES     
    7385 HW2         45.1594    12.0150   114.5240 HW2           1 RES     
    7386 OW          56.7974    17.2210   115.7770 OW            1 RES     
    7387 HW1         57.2364    17.8920   116.3730 HW1           1 RES     
    7388 HW2         55.9424    17.5990   115.4210 HW2           1 RES     
    7389 OW          41.1694    25.8070    96.3760 OW            1 RES     
    7390 HW1         41.8184    25.2150    95.9000 HW1           1 RES     
    7391 HW2         41.0934    26.6780    95.8890 HW2           1 RES     
    7392 OW          54.4824    26.7560    91.6040 OW            1 RES     
    7393 HW1         55.0634    26.8250    92.4150 HW1           1 RES     
    7394 HW2         54.7504    27.4550    90.9410 HW2           1 RES     
    7395 OW          43.5164    25.8050   103.6230 OW            1 RES     
    7396 HW1         43.4924    24.8620   103.2930 HW1           1 RES     
    7397 HW2         43.0514    25.8620   104.5070 HW2           1 RES     
    7398 OW          12.6674    39.7990    99.2620 OW            1 RES     
    7399 HW1         13.1664    40.6650    99.2470 HW1           1 RES     
    7400 HW2         11.6834    39.9800    99.2370 HW2           1 RES     
    7401 OW           1.3284    36.1200   102.1900 OW            1 RES     
    7402 HW1          1.6824    36.2830   103.1100 HW1           1 RES     
    7403 HW2          0.3414    36.2850   102.1780 HW2           1 RES     
    7404 OW          31.2524    47.9930   113.2750 OW            1 RES     
    7405 HW1         31.6204    48.8890   113.0270 HW1           1 RES     
    7406 HW2         30.5184    47.7470   112.6420 HW2           1 RES     
    7407 OW          20.5184    38.1630   110.7050 OW            1 RES     
    7408 HW1         21.2244    37.4560   110.6660 HW1           1 RES     
    7409 HW2         20.9094    39.0410   110.4250 HW2           1 RES     
    7410 OW          34.3204    39.7220    92.9550 OW            1 RES     
    7411 HW1         34.5634    39.4250    92.0320 HW1           1 RES     
    7412 HW2         35.0474    40.3020    93.3220 HW2           1 RES     
    7413 OW          38.6034    12.3620    98.7080 OW            1 RES     
    7414 HW1         39.5824    12.1720    98.6400 HW1           1 RES     
    7415 HW2         38.4594    13.3490    98.7770 HW2           1 RES     
    7416 OW           8.3294    35.5040   108.6230 OW            1 RES     
    7417 HW1          7.3934    35.8280   108.7510 HW1           1 RES     
    7418 HW2          8.9594    36.2790   108.6630 HW2           1 RES     
    7419 OW          41.2054    16.8750    91.5900 OW            1 RES     
    7420 HW1         42.0494    16.3410    91.5720 HW1           1 RES     
    7421 HW2         40.5374    16.4660    90.9690 HW2           1 RES     
    7422 OW          49.8534    43.5780   112.8010 OW            1 RES     
    7423 HW1         49.2854    44.1620   113.3800 HW1           1 RES     
    7424 HW2         50.6904    43.3350   113.2920 HW2           1 RES     
    7425 OW          49.6194    41.7440   115.5780 OW            1 RES     
    7426 HW1         48.6764    41.5830   115.2880 HW1           1 RES     
    7427 HW2         50.1414    40.8950   115.4970 HW2           1 RES     
    7428 OW          14.6154     7.5570    94.4390 OW            1 RES     
    7429 HW1         14.3924     6.5840    94.3870 HW1           1 RES     
    7430 HW2         13.8714     8.0920    94.0380 HW2           1 RES     
    7431 OW          41.5564    15.0740   106.1860 OW            1 RES     
    7432 HW1         42.2554    14.3610   106.1440 HW1           1 RES     
    7433 HW2         41.0684    15.1150   105.3140 HW2           1 RES     
    7434 OW          54.4814    20.9520   114.9550 OW            1 RES     
    7435 HW1         54.6574    21.8820   115.2740 HW1           1 RES     
    7436 HW2         55.2714    20.3730   115.1600 HW2           1 RES     
    7437 OW          21.5004    28.0030   107.9580 OW            1 RES     
    7438 HW1         21.4384    28.7970   107.3540 HW1           1 RES     
    7439 HW2         20.6204    27.8560   108.4090 HW2           1 RES     
    7440 OW          45.8574    23.0270   103.8670 OW            1 RES     
    7441 HW1         46.4414    23.0020   103.0570 HW1           1 RES     
    7442 HW2         45.9684    23.9050   104.3320 HW2           1 RES     
    7443 OW          57.1184    25.1760   100.7920 OW            1 RES     
    7444 HW1         57.2334    26.1130   101.1210 HW1           1 RES     
    7445 HW2         56.6854    24.6230   101.5040 HW2           1 RES     
    7446 OW          30.5184    45.0170   102.7160 OW            1 RES     
    7447 HW1         29.9634    44.1950   102.8340 HW1           1 RES     
    7448 HW2         31.1624    45.0980   103.4770 HW2           1 RES     
    7449 OW          48.7954    10.9070    93.7660 OW            1 RES     
    7450 HW1         49.2024    11.1810    94.6370 HW1           1 RES     
    7451 HW2         48.3554    11.6970    93.3390 HW2           1 RES     
    7452 OW          49.1824    31.4860   111.5450 OW            1 RES     
    7453 HW1         49.6444    32.1570   112.1250 HW1           1 RES     
    7454 HW2         48.6954    30.8270   112.1180 HW2           1 RES     
    7455 OW          15.9744    10.2980   103.5310 OW            1 RES     
    7456 HW1         15.9534     9.3260   103.2970 HW1           1 RES     
    7457 HW2         15.0444    10.6660   103.5100 HW2           1 RES     
    7458 OW           2.7294    27.2220   104.4790 OW            1 RES     
    7459 HW1          3.4454    27.6010   103.8920 HW1           1 RES     
    7460 HW2          2.4084    26.3560   104.0970 HW2           1 RES     
    7461 OW          43.3264    46.1910    95.6460 OW            1 RES     
    7462 HW1         43.4734    47.1730    95.5370 HW1           1 RES     
    7463 HW2         43.9854    45.8250    96.3030 HW2           1 RES     
    7464 OW          10.6224    39.3860   106.0550 OW            1 RES     
    7465 HW1         11.5284    39.2320   106.4470 HW1           1 RES     
    7466 HW2         10.0094    38.6450   106.3290 HW2           1 RES     
    7467 OW          16.5034    28.5210   111.1550 OW            1 RES     
    7468 HW1         15.7334    28.2900   110.5610 HW1           1 RES     
    7469 HW2         16.8184    29.4470   110.9490 HW2           1 RES     
    7470 OW          56.7084    27.9330   104.9320 OW            1 RES     
    7471 HW1         57.0824    28.8500   105.0680 HW1           1 RES     
    7472 HW2         55.7104    27.9660   104.9960 HW2           1 RES     
    7473 OW          32.8004    13.0530   113.3630 OW            1 RES     
    7474 HW1         32.6124    12.0820   113.2180 HW1           1 RES     
    7475 HW2         33.7894    13.2030   113.3770 HW2           1 RES     
    7476 OW          28.1684    31.4670   105.4740 OW            1 RES     
    7477 HW1         28.1254    30.4690   105.4950 HW1           1 RES     
    7478 HW2         29.1244    31.7590   105.4330 HW2           1 RES     
    7479 OW          37.8724     9.0230    91.9770 OW            1 RES     
    7480 HW1         37.7384     9.7800    92.6160 HW1           1 RES     
    7481 HW2         36.9994     8.5620    91.8170 HW2           1 RES     
    7482 OW          30.9754    40.8060   113.2080 OW            1 RES     
    7483 HW1         30.6324    40.7930   114.1470 HW1           1 RES     
    7484 HW2         31.6404    40.0690   113.0860 HW2           1 RES     
    7485 OW          35.1354    48.7900    93.5990 OW            1 RES     
    7486 HW1         34.9814    47.9710    94.1500 HW1           1 RES     
    7487 HW2         35.9964    48.6980    93.0980 HW2           1 RES     
    7488 OW          38.0334    32.5840   113.1140 OW            1 RES     
    7489 HW1         38.3054    32.9930   113.9850 HW1           1 RES     
    7490 HW2         37.9334    33.3020   112.4250 HW2           1 RES     
    7491 OW          48.6514     8.3170    96.0460 OW            1 RES     
    7492 HW1         47.6564     8.2450    96.1090 HW1           1 RES     
    7493 HW2         48.9204     9.2790    96.1040 HW2           1 RES     
    7494 OW          53.7584    19.6340    97.5030 OW            1 RES     
    7495 HW1         53.5614    19.8670    98.4550 HW1           1 RES     
    7496 HW2         54.6994    19.8930    97.2850 HW2           1 RES     
    7497 OW          29.1824    37.1250   101.3710 OW            1 RES     
    7498 HW1         29.7154    37.9670   101.4400 HW1           1 RES     
    7499 HW2         28.2114    37.3330   101.4940 HW2           1 RES     
    7500 OW          48.6084    37.9450   112.0500 OW            1 RES     
    7501 HW1         48.6394    37.1560   112.6630 HW1           1 RES     
    7502 HW2         48.9944    37.6940   111.1620 HW2           1 RES     
    7503 OW          17.6644    38.0380   106.7900 OW            1 RES     
    7504 HW1         18.5854    37.6480   106.7870 HW1           1 RES     
    7505 HW2         17.7254    39.0360   106.7980 HW2           1 RES     
    7506 OW          45.9894    36.9390   116.3800 OW            1 RES     
    7507 HW1         46.1774    37.4980   117.1870 HW1           1 RES     
    7508 HW2         46.6374    36.1780   116.3430 HW2           1 RES     
    7509 OW          37.2714    18.9410   112.5660 OW            1 RES     
    7510 HW1         37.3714    18.1480   111.9660 HW1           1 RES     
    7511 HW2         36.7934    18.6690   113.4020 HW2           1 RES     
    7512 OW          54.5584    36.0160   108.2010 OW            1 RES     
    7513 HW1         55.1044    36.8520   108.2060 HW1           1 RES     
    7514 HW2         55.1644    35.2200   108.2210 HW2           1 RES     
    7515 OW          14.8394    12.4850    90.5110 OW            1 RES     
    7516 HW1         15.6254    13.0570    90.2830 HW1           1 RES     
    7517 HW2         14.0804    13.0640    90.8110 HW2           1 RES     
    7518 OW          30.4674    19.6800   109.1540 OW            1 RES     
    7519 HW1         31.2864    20.2510   109.1850 HW1           1 RES     
    7520 HW2         29.6594    20.2450   109.3260 HW2           1 RES     
    7521 OW          21.4244    21.4170   100.2770 OW            1 RES     
    7522 HW1         21.5764    20.4420   100.4310 HW1           1 RES     
    7523 HW2         22.2874    21.9110   100.3820 HW2           1 RES     
    7524 OW          19.9034    48.3390   103.0140 OW            1 RES     
    7525 HW1         19.4054    47.4940   103.2080 HW1           1 RES     
    7526 HW2         19.2524    49.0780   102.8420 HW2           1 RES     
    7527 OW          39.1684    48.7600   115.5140 OW            1 RES     
    7528 HW1         39.2004    47.8400   115.9050 HW1           1 RES     
    7529 HW2         38.3834    48.8340   114.8980 HW2           1 RES     
    7530 OW          21.1714    37.6660    94.6980 OW            1 RES     
    7531 HW1         21.2574    38.6600    94.7580 HW1           1 RES     
    7532 HW2         20.8284    37.4150    93.7930 HW2           1 RES     
    7533 OW          15.1644    26.1250    90.8560 OW            1 RES     
    7534 HW1         15.8054    26.6320    90.2810 HW1           1 RES     
    7535 HW2         14.2944    26.0190    90.3740 HW2           1 RES     
    7536 OW          26.3634    14.4770   116.9910 OW            1 RES     
    7537 HW1         27.0184    15.1550   116.6590 HW1           1 RES     
    7538 HW2         25.9794    13.9760   116.2150 HW2           1 RES     
    7539 OW          29.9214     5.3920   108.1840 OW            1 RES     
    7540 HW1         30.9174     5.4640   108.1640 HW1           1 RES     
    7541 HW2         29.6594     4.4510   108.4010 HW2           1 RES     
    7542 OW          20.3884    38.6100    97.6520 OW            1 RES     
    7543 HW1         21.0724    38.3370    96.9770 HW1           1 RES     
    7544 HW2         19.5714    38.9470    97.1820 HW2           1 RES     
    7545 OW          39.9904    24.3220   106.2170 OW            1 RES     
    7546 HW1         39.0394    24.1970   106.4980 HW1           1 RES     
    7547 HW2         40.1984    25.2990   106.1650 HW2           1 RES     
    7548 OW          20.7064    42.8220   112.0910 OW            1 RES     
    7549 HW1         21.3194    43.3770   111.5300 HW1           1 RES     
    7550 HW2         20.1454    43.4200   112.6650 HW2           1 RES     
    7551 OW          54.2864    16.2050   100.1220 OW            1 RES     
    7552 HW1         53.5074    16.7940   100.3330 HW1           1 RES     
    7553 HW2         54.0594    15.2580   100.3480 HW2           1 RES     
    7554 OW          36.1494    15.2870   112.2930 OW            1 RES     
    7555 HW1         36.0064    15.3780   111.3080 HW1           1 RES     
    7556 HW2         36.2764    14.3220   112.5250 HW2           1 RES     
    7557 OW          38.8674    30.3020   108.3110 OW            1 RES     
    7558 HW1         39.1384    29.4750   108.8020 HW1           1 RES     
    7559 HW2         39.6674    30.8870   108.1760 HW2           1 RES     
    7560 OW          40.1614    14.1350    95.8460 OW            1 RES     
    7561 HW1         41.0514    14.3240    95.4330 HW1           1 RES     
    7562 HW2         39.5094    13.8750    95.1330 HW2           1 RES     
    7563 OW          36.6484    24.0740    91.4610 OW            1 RES     
    7564 HW1         36.7964    24.7290    90.7210 HW1           1 RES     
    7565 HW2         36.7024    23.1430    91.0990 HW2           1 RES     
    7566 OW          14.3244    45.9160   114.6150 OW            1 RES     
    7567 HW1         13.7914    46.6430   114.1830 HW1           1 RES     
    7568 HW2         13.9514    45.7220   115.5230 HW2           1 RES     
    7569 OW           6.7044    33.9120   107.2630 OW            1 RES     
    7570 HW1          7.2354    34.5820   106.7450 HW1           1 RES     
    7571 HW2          7.2034    33.6600   108.0930 HW2           1 RES     
    7572 OW          38.9434    12.1800   104.7650 OW            1 RES     
    7573 HW1         39.6204    11.4570   104.6270 HW1           1 RES     
    7574 HW2         39.4034    13.0680   104.7850 HW2           1 RES     
    7575 OW           2.7084    19.3420    97.2880 OW            1 RES     
    7576 HW1          1.7244    19.2900    97.1210 HW1           1 RES     
    7577 HW2          3.1374    19.9080    96.5840 HW2           1 RES     
    7578 OW          18.7224    33.2650   100.4750 OW            1 RES     
    7579 HW1         18.6814    32.2680   100.5170 HW1           1 RES     
    7580 HW2         19.6154    33.5490   100.1260 HW2           1 RES     
    7581 OW          28.0334     5.8650   113.8820 OW            1 RES     
    7582 HW1         28.6264     6.3590   114.5180 HW1           1 RES     
    7583 HW2         28.4904     5.7790   112.9970 HW2           1 RES     
    7584 OW          22.2894     0.1880   110.2370 OW            1 RES     
    7585 HW1         21.3174     0.0000   110.1010 HW1           1 RES     
    7586 HW2         22.5264     0.0440   111.1980 HW2           1 RES     
    7587 OW           6.5174    23.1320   103.6620 OW            1 RES     
    7588 HW1          7.0794    23.9120   103.3860 HW1           1 RES     
    7589 HW2          6.8854    22.2960   103.2550 HW2           1 RES     
    7590 OW           5.6654    45.8740   111.3010 OW            1 RES     
    7591 HW1          5.4364    46.1240   112.2410 HW1           1 RES     
    7592 HW2          5.7064    44.8770   111.2210 HW2           1 RES     
    7593 OW          41.8034    37.4660   112.6920 OW            1 RES     
    7594 HW1         42.4254    37.0230   112.0460 HW1           1 RES     
    7595 HW2         42.1954    37.4290   113.6110 HW2           1 RES     
    7596 OW          46.8984    32.4060    95.6070 OW            1 RES     
    7597 HW1         47.7844    32.2500    95.1710 HW1           1 RES     
    7598 HW2         46.3474    31.5730    95.5510 HW2           1 RES     
    7599 OW          52.3384    15.2650    93.0430 OW            1 RES     
    7600 HW1         51.5264    14.7140    92.8550 HW1           1 RES     
    7601 HW2         52.2154    15.7580    93.9040 HW2           1 RES     
    7602 OW          12.9954    17.0480   107.2800 OW            1 RES     
    7603 HW1         12.2014    16.4460   107.2010 HW1           1 RES     
    7604 HW2         13.7264    16.5730   107.7720 HW2           1 RES     
    7605 OW          32.6504    22.4190   115.5530 OW            1 RES     
    7606 HW1         32.1604    23.2600   115.3240 HW1           1 RES     
    7607 HW2         33.6324    22.6030   115.5840 HW2           1 RES     
    7608 OW          30.0254    25.6680   108.9720 OW            1 RES     
    7609 HW1         29.3864    25.1590   109.5480 HW1           1 RES     
    7610 HW2         29.5704    26.4770   108.6020 HW2           1 RES     
    7611 OW          26.3614     7.6440    96.1570 OW            1 RES     
    7612 HW1         26.2374     8.2300    96.9570 HW1           1 RES     
    7613 HW2         27.1784     7.0800    96.2790 HW2           1 RES     
    7614 OW          10.0094    26.6480   108.4090 OW            1 RES     
    7615 HW1          9.1264    26.8700   107.9960 HW1           1 RES     
    7616 HW2         10.1834    27.2650   109.1770 HW2           1 RES     
    7617 OW          14.9124    36.5710    91.4450 OW            1 RES     
    7618 HW1         15.9104    36.6100    91.4820 HW1           1 RES     
    7619 HW2         14.6104    35.6270    91.5800 HW2           1 RES     
    7620 OW           5.5994    28.2540   103.9040 OW            1 RES     
    7621 HW1          5.4134    29.1920   103.6140 HW1           1 RES     
    7622 HW2          6.5864    28.1190   103.9850 HW2           1 RES     
    7623 OW          19.0464    36.9360    96.3490 OW            1 RES     
    7624 HW1         19.9284    36.4850    96.2160 HW1           1 RES     
    7625 HW2         18.5784    36.5300    97.1330 HW2           1 RES     
    7626 OW          36.3844     8.2880    97.1090 OW            1 RES     
    7627 HW1         37.1614     8.7380    96.6700 HW1           1 RES     
    7628 HW2         35.7404     8.9790    97.4380 HW2           1 RES     
    7629 OW          31.9484    33.8350    97.2470 OW            1 RES     
    7630 HW1         31.2504    34.5490    97.2160 HW1           1 RES     
    7631 HW2         31.5084    32.9400    97.3190 HW2           1 RES     
    7632 OW          23.5144    32.9740   114.4740 OW            1 RES     
    7633 HW1         23.5504    33.9260   114.7770 HW1           1 RES     
    7634 HW2         22.8294    32.4790   115.0090 HW2           1 RES     
    7635 OW          14.8174    38.2290   100.7380 OW            1 RES     
    7636 HW1         15.1934    37.3320   100.9680 HW1           1 RES     
    7637 HW2         15.4704    38.7310   100.1710 HW2           1 RES     
    7638 OW          41.2194     4.9150   109.2960 OW            1 RES     
    7639 HW1         41.1604     4.3490   108.4740 HW1           1 RES     
    7640 HW2         42.1164     4.7910   109.7220 HW2           1 RES     
    7641 OW          28.8794     8.0070   103.4960 OW            1 RES     
    7642 HW1         29.8514     8.0560   103.7220 HW1           1 RES     
    7643 HW2         28.7604     8.1130   102.5090 HW2           1 RES     
    7644 OW          23.6664    29.9060   109.0510 OW            1 RES     
    7645 HW1         24.5314    29.5480   109.3990 HW1           1 RES     
    7646 HW2         22.9674    29.1920   109.0940 HW2           1 RES     
    7647 OW          47.1384    48.9500    92.5180 OW            1 RES     
    7648 HW1         47.3384    48.9700    91.5390 HW1           1 RES     
    7649 HW2         47.9924    48.8830    93.0330 HW2           1 RES     
    7650 OW          35.1144    25.9930    99.4420 OW            1 RES     
    7651 HW1         35.2414    26.9510    99.1880 HW1           1 RES     
    7652 HW2         34.1474    25.7510    99.3600 HW2           1 RES     
    7653 OW          12.4734    12.6200    98.4830 OW            1 RES     
    7654 HW1         12.6484    11.8430    97.8790 HW1           1 RES     
    7655 HW2         13.0404    13.3950    98.2020 HW2           1 RES     
    7656 OW          10.7914    30.8430    93.0340 OW            1 RES     
    7657 HW1         10.2774    30.1030    93.4660 HW1           1 RES     
    7658 HW2         10.2874    31.7010    93.1330 HW2           1 RES     
    7659 OW           3.1764     6.2400   110.4510 OW            1 RES     
    7660 HW1          4.1544     6.4040   110.5720 HW1           1 RES     
    7661 HW2          3.0154     5.2620   110.3160 HW2           1 RES     
    7662 OW          34.5524    25.4770   106.3440 OW            1 RES     
    7663 HW1         34.3734    26.4610   106.3340 HW1           1 RES     
    7664 HW2         35.4944    25.3060   106.0560 HW2           1 RES     
    7665 OW          33.8924    12.9150    93.2500 OW            1 RES     
    7666 HW1         33.3074    12.1280    93.0560 HW1           1 RES     
    7667 HW2         34.8484    12.6230    93.2730 HW2           1 RES     
    7668 OW          18.2984    40.2250    93.0140 OW            1 RES     
    7669 HW1         18.5304    39.2950    92.7310 HW1           1 RES     
    7670 HW2         17.3054    40.3440    92.9890 HW2           1 RES     
    7671 OW          41.7414    44.9520    96.5890 OW            1 RES     
    7672 HW1         40.7514    44.8640    96.4860 HW1           1 RES     
    7673 HW2         41.9444    45.5670    97.3510 HW2           1 RES     
    7674 OW          42.8314     2.0410    93.0320 OW            1 RES     
    7675 HW1         41.8334     2.0090    93.0850 HW1           1 RES     
    7676 HW2         43.1954     1.1100    93.0240 HW2           1 RES     
    7677 OW          45.1384     1.7110    97.9140 OW            1 RES     
    7678 HW1         44.2174     1.5640    98.2740 HW1           1 RES     
    7679 HW2         45.7264     2.0710    98.6390 HW2           1 RES     
    7680 OW          38.7984    15.7460   101.9070 OW            1 RES     
    7681 HW1         38.4504    14.8940   102.2960 HW1           1 RES     
    7682 HW2         38.6414    15.7520   100.9190 HW2           1 RES     
    7683 OW          22.5064    15.9110    98.0590 OW            1 RES     
    7684 HW1         22.8954    15.8430    97.1410 HW1           1 RES     
    7685 HW2         21.5334    16.1350    97.9930 HW2           1 RES     
    7686 OW           9.1384    18.3400   116.4490 OW            1 RES     
    7687 HW1          8.5474    19.0280   116.8690 HW1           1 RES     
    7688 HW2          9.5614    18.7210   115.6270 HW2           1 RES     
    7689 OW          38.4624     3.7210   103.2100 OW            1 RES     
    7690 HW1         37.5204     3.4720   102.9900 HW1           1 RES     
    7691 HW2         39.0604     2.9340   103.0560 HW2           1 RES     
    7692 OW          20.8144    12.1060    91.4380 OW            1 RES     
    7693 HW1         21.2364    11.2030    91.5030 HW1           1 RES     
    7694 HW2         19.8264    12.0050    91.3140 HW2           1 RES     
    7695 OW          48.7524    15.3010   112.5730 OW            1 RES     
    7696 HW1         49.6734    15.0840   112.8970 HW1           1 RES     
    7697 HW2         48.7564    16.2000   112.1350 HW2           1 RES     
    7698 OW          25.4734    16.4470    97.3640 OW            1 RES     
    7699 HW1         26.3124    16.9900    97.3950 HW1           1 RES     
    7700 HW2         24.6934    17.0230    97.6070 HW2           1 RES     
    7701 OW          16.0864    40.8840   111.0240 OW            1 RES     
    7702 HW1         16.1144    41.8610   111.2330 HW1           1 RES     
    7703 HW2         17.0024    40.5710   110.7720 HW2           1 RES     
    7704 OW          30.9904    29.9150    91.8550 OW            1 RES     
    7705 HW1         31.9674    30.1270    91.8580 HW1           1 RES     
    7706 HW2         30.8634    28.9230    91.8510 HW2           1 RES     
    7707 OW           1.8934     9.5820   108.2260 OW            1 RES     
    7708 HW1          1.2334    10.2780   108.5080 HW1           1 RES     
    7709 HW2          2.1724     9.0440   109.0210 HW2           1 RES     
    7710 OW          28.0614     0.5590    94.1110 OW            1 RES     
    7711 HW1         27.2474     0.0000    93.9590 HW1           1 RES     
    7712 HW2         27.7874     1.4860    94.3680 HW2           1 RES     
    7713 OW          45.7414     8.5420   105.3480 OW            1 RES     
    7714 HW1         45.2924     9.2860   105.8410 HW1           1 RES     
    7715 HW2         46.5124     8.2020   105.8870 HW2           1 RES     
    7716 OW          25.2184    22.0130    92.5860 OW            1 RES     
    7717 HW1         24.4144    21.4370    92.4420 HW1           1 RES     
    7718 HW2         26.0404    21.4450    92.5910 HW2           1 RES     
    7719 OW          55.7324    16.1870   105.1850 OW            1 RES     
    7720 HW1         54.9904    15.8120   105.7410 HW1           1 RES     
    7721 HW2         55.4944    17.1120   104.8900 HW2           1 RES     
    7722 OW           9.6734    20.1480   112.1840 OW            1 RES     
    7723 HW1         10.4554    20.5040   111.6740 HW1           1 RES     
    7724 HW2          9.9064    20.0910   113.1560 HW2           1 RES     
    7725 OW           8.7734    28.1030   104.3040 OW            1 RES     
    7726 HW1          9.5614    27.5110   104.1370 HW1           1 RES     
    7727 HW2          8.6864    28.7610   103.5570 HW2           1 RES     
    7728 OW           9.9284    24.9940   100.6560 OW            1 RES     
    7729 HW1          9.6304    24.0480   100.7740 HW1           1 RES     
    7730 HW2         10.9254    25.0240   100.5810 HW2           1 RES     
    7731 OW          37.3754    30.1550   110.9680 OW            1 RES     
    7732 HW1         37.9134    30.6360   110.2780 HW1           1 RES     
    7733 HW2         37.5144    30.5850   111.8600 HW2           1 RES     
    7734 OW          41.2434    16.0460   113.9090 OW            1 RES     
    7735 HW1         42.1374    16.4870   113.8510 HW1           1 RES     
    7736 HW2         40.5304    16.7000   113.6560 HW2           1 RES     
    7737 OW          29.4304    13.6780    93.6700 OW            1 RES     
    7738 HW1         29.3814    14.4750    94.2700 HW1           1 RES     
    7739 HW2         30.3464    13.2790    93.7180 HW2           1 RES     
    7740 OW          14.6764     9.9980    97.8620 OW            1 RES     
    7741 HW1         13.7534     9.9180    97.4880 HW1           1 RES     
    7742 HW2         14.7434     9.4660    98.7060 HW2           1 RES     
    7743 OW           5.5414    19.3040    99.2000 OW            1 RES     
    7744 HW1          4.6764    18.8450    99.4020 HW1           1 RES     
    7745 HW2          6.2874    18.6390    99.2330 HW2           1 RES     
    7746 OW          42.8214    43.5780    99.2320 OW            1 RES     
    7747 HW1         43.6064    44.1950    99.2740 HW1           1 RES     
    7748 HW2         43.1384    42.6310    99.2940 HW2           1 RES     
    7749 OW          55.4144    36.2750   100.7720 OW            1 RES     
    7750 HW1         55.6054    35.3280   100.5170 HW1           1 RES     
    7751 HW2         54.9134    36.2930   101.6380 HW2           1 RES     
    7752 OW          13.9144     6.9860   102.6370 OW            1 RES     
    7753 HW1         14.7304     6.4170   102.5370 HW1           1 RES     
    7754 HW2         13.1074     6.4010   102.7100 HW2           1 RES     
    7755 OW          31.8384     0.6560    97.3410 OW            1 RES     
    7756 HW1         32.4764     0.9400    96.6250 HW1           1 RES     
    7757 HW2         31.1844     0.0000    96.9630 HW2           1 RES     
    7758 OW          30.1474    13.1460   113.9070 OW            1 RES     
    7759 HW1         29.3154    13.2320   113.3600 HW1           1 RES     
    7760 HW2         30.7804    13.8840   113.6710 HW2           1 RES     
    7761 OW          26.8064    35.9780   106.3390 OW            1 RES     
    7762 HW1         26.1254    35.9150   105.6100 HW1           1 RES     
    7763 HW2         27.2394    35.0860   106.4690 HW2           1 RES     
    7764 OW          48.4814    29.8850   106.1750 OW            1 RES     
    7765 HW1         49.3194    30.2200   106.6050 HW1           1 RES     
    7766 HW2         48.5104    28.8870   106.1200 HW2           1 RES     
    7767 OW          25.0494    11.1480   105.0850 OW            1 RES     
    7768 HW1         25.9564    11.4590   105.3650 HW1           1 RES     
    7769 HW2         24.8754    10.2400   105.4670 HW2           1 RES     
    7770 OW          45.1914    49.0350    94.7900 OW            1 RES     
    7771 HW1         45.0714    48.2340    94.2050 HW1           1 RES     
    7772 HW2         44.3654    49.1750    95.3380 HW2           1 RES     
    7773 OW          22.1974    32.2120    97.6780 OW            1 RES     
    7774 HW1         23.1134    32.3350    97.2960 HW1           1 RES     
    7775 HW2         22.0974    32.7820    98.4940 HW2           1 RES     
    7776 OW          27.8914    27.6660   115.8830 OW            1 RES     
    7777 HW1         27.7654    27.1940   116.7550 HW1           1 RES     
    7778 HW2         27.0604    28.1740   115.6550 HW2           1 RES     
    7779 OW          25.9544    46.3000   108.6360 OW            1 RES     
    7780 HW1         26.6234    45.5670   108.5230 HW1           1 RES     
    7781 HW2         26.4274    47.1800   108.6850 HW2           1 RES     
    7782 OW          14.4704    34.9270    95.3510 OW            1 RES     
    7783 HW1         14.3304    34.8030    96.3330 HW1           1 RES     
    7784 HW2         13.9484    35.7200    95.0370 HW2           1 RES     
    7785 OW          33.7424     7.6280   111.6870 OW            1 RES     
    7786 HW1         34.2384     7.0600   112.3430 HW1           1 RES     
    7787 HW2         32.8634     7.2000   111.4730 HW2           1 RES     
    7788 OW          27.9614    43.6650   116.2500 OW            1 RES     
    7789 HW1         27.6204    44.3200   115.5770 HW1           1 RES     
    7790 HW2         28.0654    42.7680   115.8200 HW2           1 RES     
    7791 OW          25.8354    37.5050   116.8190 OW            1 RES     
    7792 HW1         24.8524    37.6830   116.8390 HW1           1 RES     
    7793 HW2         26.3224    38.3460   116.5810 HW2           1 RES     
    7794 OW          47.5744    35.8020    92.1140 OW            1 RES     
    7795 HW1         46.6724    36.0990    91.8010 HW1           1 RES     
    7796 HW2         47.4794    34.9780    92.6730 HW2           1 RES     
    7797 OW          35.4404    40.6080   116.2310 OW            1 RES     
    7798 HW1         36.0264    39.8290   116.0120 HW1           1 RES     
    7799 HW2         35.7504    41.0300   117.0830 HW2           1 RES     
    7800 OW          33.0764    21.7950   112.6210 OW            1 RES     
    7801 HW1         32.4124    21.2400   112.1210 HW1           1 RES     
    7802 HW2         33.6354    21.2040   113.2030 HW2           1 RES     
    7803 OW          38.3954    16.3490    92.9350 OW            1 RES     
    7804 HW1         38.5274    17.1670    92.3760 HW1           1 RES     
    7805 HW2         39.1194    16.2940    93.6230 HW2           1 RES     
    7806 OW          54.8354    33.1730    93.2500 OW            1 RES     
    7807 HW1         55.3814    32.3360    93.2220 HW1           1 RES     
    7808 HW2         54.4694    33.3630    92.3380 HW2           1 RES     
    7809 OW          52.0354    41.5610   116.6330 OW            1 RES     
    7810 HW1         52.1214    42.0120   117.5200 HW1           1 RES     
    7811 HW2         52.8814    41.6820   116.1130 HW2           1 RES     
    7812 OW          32.7214    30.0460   106.1670 OW            1 RES     
    7813 HW1         33.5104    29.7060   106.6780 HW1           1 RES     
    7814 HW2         31.8794    29.7840   106.6390 HW2           1 RES     
    7815 OW          17.3694    36.0410   113.5570 OW            1 RES     
    7816 HW1         18.0794    36.7360   113.6650 HW1           1 RES     
    7817 HW2         17.7464    35.1410   113.7750 HW2           1 RES     
    7818 OW          38.7494    12.5190   116.7790 OW            1 RES     
    7819 HW1         39.7224    12.2990   116.8310 HW1           1 RES     
    7820 HW2         38.2254    11.6810   116.6220 HW2           1 RES     
    7821 OW          31.7904    26.4000   110.0650 OW            1 RES     
    7822 HW1         31.5444    27.3600   110.1950 HW1           1 RES     
    7823 HW2         32.7824    26.3210   109.9600 HW2           1 RES     
    7824 OW          38.4864     9.3870   106.1960 OW            1 RES     
    7825 HW1         37.9784     9.3450   105.3360 HW1           1 RES     
    7826 HW2         38.7194    10.3380   106.4000 HW2           1 RES     
    7827 OW           0.5464     6.9040   107.6160 OW            1 RES     
    7828 HW1          0.3214     5.9400   107.7570 HW1           1 RES     
    7829 HW2          1.0624     7.2440   108.4020 HW2           1 RES     
    7830 OW          19.8924    46.1100    99.4810 OW            1 RES     
    7831 HW1         19.0164    46.5800    99.3800 HW1           1 RES     
    7832 HW2         19.7414    45.1210    99.4880 HW2           1 RES     
    7833 OW          12.5164    43.0980   109.7770 OW            1 RES     
    7834 HW1         13.1444    43.8670   109.8950 HW1           1 RES     
    7835 HW2         12.9614    42.2540   110.0750 HW2           1 RES     
    7836 OW          41.3644    28.9080    96.6510 OW            1 RES     
    7837 HW1         40.9174    29.7240    97.0140 HW1           1 RES     
    7838 HW2         41.5504    28.2690    97.3970 HW2           1 RES     
    7839 OW          57.2344    28.2290    90.7870 OW            1 RES     
    7840 HW1         57.0414    27.3890    90.2810 HW1           1 RES     
    7841 HW2         56.8434    28.1630    91.7050 HW2           1 RES     
    7842 OW          46.4854    19.8080   108.4330 OW            1 RES     
    7843 HW1         45.5904    19.3820   108.5600 HW1           1 RES     
    7844 HW2         47.1984    19.1090   108.4890 HW2           1 RES     
    7845 OW           6.4164    39.7690   117.2430 OW            1 RES     
    7846 HW1          5.8934    38.9780   117.5580 HW1           1 RES     
    7847 HW2          6.3844    39.8150   116.2450 HW2           1 RES     
    7848 OW          52.7354    18.9370   102.3200 OW            1 RES     
    7849 HW1         52.2264    18.9640   103.1790 HW1           1 RES     
    7850 HW2         52.9724    17.9900   102.1020 HW2           1 RES     
    7851 OW          53.5874     0.5450   114.4560 OW            1 RES     
    7852 HW1         54.4144     0.2580   113.9740 HW1           1 RES     
    7853 HW2         53.7714     1.3870   114.9630 HW2           1 RES     
    7854 OW          39.8364    36.1770   101.3450 OW            1 RES     
    7855 HW1         39.7474    35.4930   102.0680 HW1           1 RES     
    7856 HW2         40.7684    36.1580   100.9810 HW2           1 RES     
    7857 OW          46.1904    18.9110    92.3880 OW            1 RES     
    7858 HW1         46.5524    17.9840    92.4730 HW1           1 RES     
    7859 HW2         45.2254    18.8700    92.1250 HW2           1 RES     
    7860 OW          56.6134     1.7780    93.6580 OW            1 RES     
    7861 HW1         56.4084     2.0730    94.5900 HW1           1 RES     
    7862 HW2         57.1594     0.9410    93.6850 HW2           1 RES     
    7863 OW          23.6604    45.5740    95.6720 OW            1 RES     
    7864 HW1         23.5964    44.7930    96.2930 HW1           1 RES     
    7865 HW2         22.8384    46.1360    95.7570 HW2           1 RES     
    7866 OW          33.5454    44.7680   117.3160 OW            1 RES     
    7867 HW1         32.6654    44.2990   117.2440 HW1           1 RES     
    7868 HW2         33.3934    45.7290   117.5470 HW2           1 RES     
    7869 OW          33.8854    19.5650   111.6560 OW            1 RES     
    7870 HW1         34.0124    18.9810   112.4570 HW1           1 RES     
    7871 HW2         33.3584    19.0710   110.9640 HW2           1 RES     
    7872 OW          43.4994    46.1180   100.9300 OW            1 RES     
    7873 HW1         44.1314    46.8830   100.8090 HW1           1 RES     
    7874 HW2         42.5874    46.4690   101.1440 HW2           1 RES     
    7875 OW          23.2294    18.0170   100.1600 OW            1 RES     
    7876 HW1         22.8134    18.3610   101.0020 HW1           1 RES     
    7877 HW2         22.8684    17.1060    99.9580 HW2           1 RES     
    7878 OW          14.3934    27.6020    92.4290 OW            1 RES     
    7879 HW1         14.1484    26.7620    92.9130 HW1           1 RES     
    7880 HW2         13.7284    27.7750    91.7020 HW2           1 RES     
    7881 OW          53.6434    19.1040   108.7520 OW            1 RES     
    7882 HW1         54.4174    19.6920   108.9830 HW1           1 RES     
    7883 HW2         53.9734    18.2850   108.2830 HW2           1 RES     
    7884 OW          20.7384    11.1680    94.2720 OW            1 RES     
    7885 HW1         19.8194    10.8710    94.0140 HW1           1 RES     
    7886 HW2         20.7644    12.1670    94.3210 HW2           1 RES     
    7887 OW          22.9194    49.1720   115.4220 OW            1 RES     
    7888 HW1         23.2584    48.3330   114.9980 HW1           1 RES     
    7889 HW2         21.9194    49.1760   115.4010 HW2           1 RES     
    7890 OW          36.2524    20.9200   114.9240 OW            1 RES     
    7891 HW1         37.1244    21.4080   114.9000 HW1           1 RES     
    7892 HW2         35.5544    21.5040   115.3400 HW2           1 RES     
    7893 OW          53.2074    17.4790   117.0160 OW            1 RES     
    7894 HW1         52.7934    16.7540   117.5650 HW1           1 RES     
    7895 HW2         52.6404    17.6530   116.2100 HW2           1 RES     
    7896 OW          21.8554    21.8600    93.8820 OW            1 RES     
    7897 HW1         22.5064    21.1290    93.6810 HW1           1 RES     
    7898 HW2         20.9404    21.4710    93.9940 HW2           1 RES     
    7899 OW          41.0194    42.5930   101.6050 OW            1 RES     
    7900 HW1         41.1954    43.0280   100.7230 HW1           1 RES     
    7901 HW2         41.6464    41.8230   101.7290 HW2           1 RES     
    7902 OW          22.7974    13.1090    91.3410 OW            1 RES     
    7903 HW1         23.4874    13.1090    90.6180 HW1           1 RES     
    7904 HW2         22.3984    14.0220    91.4230 HW2           1 RES     
    7905 OW          54.3324    41.5380    93.3130 OW            1 RES     
    7906 HW1         53.3344    41.5700    93.3250 HW1           1 RES     
    7907 HW2         54.6964    42.4690    93.3570 HW2           1 RES     
    7908 OW          50.3454    13.2430   111.5360 OW            1 RES     
    7909 HW1         49.7614    12.5590   111.0990 HW1           1 RES     
    7910 HW2         51.2484    13.2340   111.1050 HW2           1 RES     
    7911 OW           7.6224     1.9710   103.6710 OW            1 RES     
    7912 HW1          6.7884     1.8830   104.2150 HW1           1 RES     
    7913 HW2          7.7404     2.9240   103.3920 HW2           1 RES     
    7914 OW          17.9774    41.2550   103.1470 OW            1 RES     
    7915 HW1         18.0094    40.5540   102.4350 HW1           1 RES     
    7916 HW2         18.2834    40.8630   104.0150 HW2           1 RES     
    7917 OW          21.4554    27.5760    91.2500 OW            1 RES     
    7918 HW1         21.5364    28.3070    90.5740 HW1           1 RES     
    7919 HW2         20.7714    27.8280    91.9350 HW2           1 RES     
    7920 OW          32.9524     6.9790    99.9250 OW            1 RES     
    7921 HW1         32.8614     7.9680   100.0360 HW1           1 RES     
    7922 HW2         32.0504     6.5520    99.9830 HW2           1 RES     
    7923 OW          30.5804    12.4720   100.8190 OW            1 RES     
    7924 HW1         30.6304    11.9820   101.6880 HW1           1 RES     
    7925 HW2         30.6524    13.4560   100.9860 HW2           1 RES     
    7926 OW          20.3144     6.6390   111.6730 OW            1 RES     
    7927 HW1         20.0424     6.3070   110.7700 HW1           1 RES     
    7928 HW2         19.6154     7.2600   112.0250 HW2           1 RES     
    7929 OW          40.9644    31.8020    96.2420 OW            1 RES     
    7930 HW1         40.7994    32.2660    95.3730 HW1           1 RES     
    7931 HW2         41.9394    31.5960    96.3300 HW2           1 RES     
    7932 OW          52.0094    29.0910    93.7940 OW            1 RES     
    7933 HW1         51.5494    28.2280    93.5880 HW1           1 RES     
    7934 HW2         51.3354    29.8300    93.8240 HW2           1 RES     
    7935 OW          37.6264    40.3650   109.8200 OW            1 RES     
    7936 HW1         36.7454    40.8360   109.8430 HW1           1 RES     
    7937 HW2         37.5214    39.4830   109.3580 HW2           1 RES     
    7938 OW          14.3004     8.2000   107.6780 OW            1 RES     
    7939 HW1         13.6564     7.5900   107.2160 HW1           1 RES     
    7940 HW2         13.8134     9.0070   108.0120 HW2           1 RES     
    7941 OW          25.4444    39.5740   101.2720 OW            1 RES     
    7942 HW1         25.3074    39.5040   100.2850 HW1           1 RES     
    7943 HW2         25.1794    40.4870   101.5820 HW2           1 RES     
    7944 OW          29.2634    47.3990   104.1210 OW            1 RES     
    7945 HW1         28.9414    48.0620   104.7950 HW1           1 RES     
    7946 HW2         29.3684    47.8490   103.2340 HW2           1 RES     
    7947 OW          18.9544    14.2240   100.4000 OW            1 RES     
    7948 HW1         19.0764    14.6060   101.3160 HW1           1 RES     
    7949 HW2         18.9064    13.2270   100.4580 HW2           1 RES     
    7950 OW          18.5474    42.9930    97.4070 OW            1 RES     
    7951 HW1         18.2754    42.1700    96.9080 HW1           1 RES     
    7952 HW2         17.8544    43.2100    98.0960 HW2           1 RES     
    7953 OW          46.4904    10.1830    92.5960 OW            1 RES     
    7954 HW1         45.8484    10.5270    93.2790 HW1           1 RES     
    7955 HW2         47.0724     9.4820    93.0080 HW2           1 RES     
    7956 OW          38.5124    16.3430    98.6340 OW            1 RES     
    7957 HW1         38.5574    16.2170    97.6430 HW1           1 RES     
    7958 HW2         37.5964    16.6500    98.8900 HW2           1 RES     
    7959 OW          35.4214    48.2340   107.5420 OW            1 RES     
    7960 HW1         35.8004    47.6060   106.8630 HW1           1 RES     
    7961 HW2         35.5284    49.1760   107.2220 HW2           1 RES     
    7962 OW          45.5864    33.6490    91.1430 OW            1 RES     
    7963 HW1         46.2534    33.4790    90.4180 HW1           1 RES     
    7964 HW2         45.7264    32.9930    91.8860 HW2           1 RES     
    7965 OW          47.4614    11.0880   107.3350 OW            1 RES     
    7966 HW1         47.4564    10.0950   107.4450 HW1           1 RES     
    7967 HW2         46.5274    11.4380   107.4110 HW2           1 RES     
    7968 OW          33.1424    10.6170   100.2510 OW            1 RES     
    7969 HW1         32.3654    11.0530   100.7050 HW1           1 RES     
    7970 HW2         33.5054    11.2310    99.5500 HW2           1 RES     
    7971 OW          27.8994    33.7800   103.0240 OW            1 RES     
    7972 HW1         28.3164    34.1520   103.8530 HW1           1 RES     
    7973 HW2         27.0064    34.2070   102.8790 HW2           1 RES     
    7974 OW          17.4684     1.9040   104.3340 OW            1 RES     
    7975 HW1         16.7044     1.7420   104.9590 HW1           1 RES     
    7976 HW2         18.1154     1.1450   104.3930 HW2           1 RES     
    7977 OW          14.4394     3.9380   113.0610 OW            1 RES     
    7978 HW1         13.6944     4.5520   113.3210 HW1           1 RES     
    7979 HW2         15.2814     4.4650   112.9460 HW2           1 RES     
    7980 OW          17.2344     6.6690   101.8130 OW            1 RES     
    7981 HW1         16.4554     6.6390   101.1890 HW1           1 RES     
    7982 HW2         17.8514     5.9070   101.6130 HW2           1 RES     
    7983 OW           8.5224    15.1540   108.9090 OW            1 RES     
    7984 HW1          7.6484    15.1700   109.3930 HW1           1 RES     
    7985 HW2          8.4994    15.8090   108.1530 HW2           1 RES     
    7986 OW          53.1034    10.8640    98.7950 OW            1 RES     
    7987 HW1         52.5994    10.3970    99.5200 HW1           1 RES     
    7988 HW2         53.4234    10.1930    98.1250 HW2           1 RES     
    7989 OW           8.5354    30.5440   104.9420 OW            1 RES     
    7990 HW1          8.4734    31.5240   104.7590 HW1           1 RES     
    7991 HW2          7.9344    30.3070   105.7050 HW2           1 RES     
    7992 OW          38.2674     7.9030   111.0750 OW            1 RES     
    7993 HW1         38.8334     7.8410   110.2540 HW1           1 RES     
    7994 HW2         38.6314     8.6120   111.6800 HW2           1 RES     
    7995 OW          26.0674    26.6690   110.8060 OW            1 RES     
    7996 HW1         26.4404    26.0670   110.1010 HW1           1 RES     
    7997 HW2         26.8104    27.1810   111.2360 HW2           1 RES     
    7998 OW          15.0224    23.6350   105.4500 OW            1 RES     
    7999 HW1         14.7704    24.4680   104.9600 HW1           1 RES     
    8000 HW2         15.2154    23.8560   106.4070 HW2           1 RES     
    8001 OW          25.9964    16.9810    92.8090 OW            1 RES     
    8002 HW1         26.2724    17.6800    93.4690 HW1           1 RES     
    8003 HW2         24.9974    16.9360    92.7690 HW2           1 RES     
    8004 OW          33.6974     9.4050   110.3410 OW            1 RES     
    8005 HW1         32.7734     9.6740   110.0710 HW1           1 RES     
    8006 HW2         34.3634     9.8480   109.7410 HW2           1 RES     
    8007 OW          19.9164     6.3570    99.6860 OW            1 RES     
    8008 HW1         19.5434     5.4920   100.0200 HW1           1 RES     
    8009 HW2         20.6514     6.1740    99.0330 HW2           1 RES     
    8010 OW          31.7814    40.8860   105.3450 OW            1 RES     
    8011 HW1         31.4664    40.1060   105.8850 HW1           1 RES     
    8012 HW2         32.3564    41.4740   105.9140 HW2           1 RES     
    8013 OW          43.8534    45.3600   114.6920 OW            1 RES     
    8014 HW1         42.9524    45.5810   114.3200 HW1           1 RES     
    8015 HW2         44.0424    45.9470   115.4790 HW2           1 RES     
    8016 OW           4.8854    33.9560    99.8370 OW            1 RES     
    8017 HW1          5.7164    33.7390    99.3270 HW1           1 RES     
    8018 HW2          4.1704    34.2480    99.2010 HW2           1 RES     
    8019 OW          27.6714    14.7170   113.4150 OW            1 RES     
    8020 HW1         27.0674    14.1180   112.8910 HW1           1 RES     
    8021 HW2         27.4524    15.6720   113.2130 HW2           1 RES     
    8022 OW          29.0984     7.8950    92.7530 OW            1 RES     
    8023 HW1         29.9874     8.2070    92.4180 HW1           1 RES     
    8024 HW2         29.0164     6.9080    92.6120 HW2           1 RES     
    8025 OW          48.5744    17.4890   107.6490 OW            1 RES     
    8026 HW1         49.4324    17.3440   108.1410 HW1           1 RES     
    8027 HW2         47.8434    16.9700   108.0930 HW2           1 RES     
    8028 OW          27.4844    39.4160   106.2970 OW            1 RES     
    8029 HW1         26.9834    39.3450   105.4350 HW1           1 RES     
    8030 HW2         26.8444    39.6150   107.0390 HW2           1 RES     
    8031 OW          48.9714    36.3750   104.2470 OW            1 RES     
    8032 HW1         47.9784    36.2690   104.2840 HW1           1 RES     
    8033 HW2         49.2034    37.3480   104.2490 HW2           1 RES     
    8034 OW          34.4724    23.9270   103.8780 OW            1 RES     
    8035 HW1         34.2044    24.8780   104.0330 HW1           1 RES     
    8036 HW2         34.1934    23.3700   104.6600 HW2           1 RES     
    8037 OW          19.7364    17.8150   101.7120 OW            1 RES     
    8038 HW1         20.7164    17.6450   101.8140 HW1           1 RES     
    8039 HW2         19.2234    17.0470   102.0950 HW2           1 RES     
    8040 OW          27.2174    20.6770   116.2470 OW            1 RES     
    8041 HW1         26.4454    20.6870   116.8810 HW1           1 RES     
    8042 HW2         27.3424    21.5900   115.8590 HW2           1 RES     
    8043 OW           9.1714    10.1440   101.9080 OW            1 RES     
    8044 HW1          8.3664     9.5520   101.9080 HW1           1 RES     
    8045 HW2          9.1724    10.7070   102.7350 HW2           1 RES     
    8046 OW          39.7604     1.6480   116.8180 OW            1 RES     
    8047 HW1         40.5604     1.1550   116.4800 HW1           1 RES     
    8048 HW2         39.9804     2.6190   116.9120 HW2           1 RES     
    8049 OW          41.6364     9.7100    99.0960 OW            1 RES     
    8050 HW1         41.7224    10.4830    99.7230 HW1           1 RES     
    8051 HW2         40.8214     9.8310    98.5280 HW2           1 RES     
    8052 OW          31.7534    14.5320    96.1450 OW            1 RES     
    8053 HW1         31.3174    13.7700    95.6700 HW1           1 RES     
    8054 HW2         31.0824    15.2580    96.3000 HW2           1 RES     
    8055 OW          30.1584     8.1870    97.3150 OW            1 RES     
    8056 HW1         30.6804     7.7990    98.0740 HW1           1 RES     
    8057 HW2         30.2514     7.6000    96.5110 HW2           1 RES     
    8058 OW          29.9554    47.1800    93.6510 OW            1 RES     
    8059 HW1         30.6724    46.7940    94.2300 HW1           1 RES     
    8060 HW2         29.0584    46.9330    94.0190 HW2           1 RES     
    8061 OW          29.6574    43.9110   113.5800 OW            1 RES     
    8062 HW1         30.2824    44.0700   112.8160 HW1           1 RES     
    8063 HW2         28.7234    43.8190   113.2330 HW2           1 RES     
    8064 OW          30.3154    21.6860   103.7610 OW            1 RES     
    8065 HW1         30.6704    20.7530   103.7160 HW1           1 RES     
    8066 HW2         29.3374    21.6820   103.5490 HW2           1 RES     
    8067 OW          11.0624     8.1700    93.8050 OW            1 RES     
    8068 HW1         10.8334     8.3710    92.8530 HW1           1 RES     
    8069 HW2         10.8724     8.9720    94.3710 HW2           1 RES     
    8070 OW          13.6764    33.0610   108.7430 OW            1 RES     
    8071 HW1         14.0684    33.9800   108.7450 HW1           1 RES     
    8072 HW2         12.9834    32.9910   109.4610 HW2           1 RES     
    8073 OW          10.2024    44.7780    98.0160 OW            1 RES     
    8074 HW1         10.2334    45.1740    98.9330 HW1           1 RES     
    8075 HW2         11.1034    44.4170    97.7770 HW2           1 RES     
    8076 OW          34.9154    45.1070   108.2730 OW            1 RES     
    8077 HW1         34.4074    45.9160   107.9790 HW1           1 RES     
    8078 HW2         35.8334    45.3770   108.5650 HW2           1 RES     
    8079 OW          55.9564    14.8930   112.7760 OW            1 RES     
    8080 HW1         55.6494    15.6640   112.2180 HW1           1 RES     
    8081 HW2         56.9464    14.9500   112.9080 HW2           1 RES     
    8082 OW          21.9224     9.5920   101.0870 OW            1 RES     
    8083 HW1         21.9534    10.5680   101.2960 HW1           1 RES     
    8084 HW2         21.1884     9.1610   101.6130 HW2           1 RES     
    8085 OW          52.7014    33.8390   102.9570 OW            1 RES     
    8086 HW1         53.5634    33.3590   103.1190 HW1           1 RES     
    8087 HW2         52.8914    34.7600   102.6160 HW2           1 RES     
    8088 OW          28.3104    10.4610   109.9040 OW            1 RES     
    8089 HW1         28.4874    11.4350   109.7690 HW1           1 RES     
    8090 HW2         28.3414    10.2480   110.8800 HW2           1 RES     
    8091 OW          37.0224    30.4770    92.5440 OW            1 RES     
    8092 HW1         36.6184    30.8410    91.7050 HW1           1 RES     
    8093 HW2         37.9094    30.9110    92.7030 HW2           1 RES     
    8094 OW          19.5284    15.0480    90.5130 OW            1 RES     
    8095 HW1         18.8954    15.4390    91.1800 HW1           1 RES     
    8096 HW2         20.3324    14.6880    90.9870 HW2           1 RES     
    8097 OW           6.7944    24.0660   109.8630 OW            1 RES     
    8098 HW1          5.9544    24.3310   109.3910 HW1           1 RES     
    8099 HW2          6.7164    23.1200   110.1770 HW2           1 RES     
    8100 OW           7.4854     5.0170    96.9850 OW            1 RES     
    8101 HW1          7.2704     5.7770    97.5970 HW1           1 RES     
    8102 HW2          6.8834     5.0490    96.1880 HW2           1 RES     
    8103 OW          10.0404     8.9530   108.1480 OW            1 RES     
    8104 HW1          9.7304     8.0040   108.1220 HW1           1 RES     
    8105 HW2         11.0224     8.9890   107.9620 HW2           1 RES     
    8106 OW           7.8434    11.8540   106.4660 OW            1 RES     
    8107 HW1          7.9264    12.3310   105.5910 HW1           1 RES     
    8108 HW2          8.3294    12.3670   107.1730 HW2           1 RES     
    8109 OW          31.1784    14.2020    98.6000 OW            1 RES     
    8110 HW1         32.0314    14.6940    98.4320 HW1           1 RES     
    8111 HW2         31.3794    13.2450    98.8060 HW2           1 RES     
    8112 OW          17.2904     3.4980   106.3540 OW            1 RES     
    8113 HW1         18.0994     4.0830   106.3400 HW1           1 RES     
    8114 HW2         16.4674     4.0660   106.3570 HW2           1 RES     
    8115 OW          21.2254    37.1830   104.9850 OW            1 RES     
    8116 HW1         21.3754    36.2260   105.2320 HW1           1 RES     
    8117 HW2         22.1054    37.6540   104.9210 HW2           1 RES     
    8118 OW          30.5504     0.7440   105.0900 OW            1 RES     
    8119 HW1         30.4244     1.6890   104.7900 HW1           1 RES     
    8120 HW2         31.2854     0.3210   104.5600 HW2           1 RES     
    8121 OW          27.1544     3.3210   112.4670 OW            1 RES     
    8122 HW1         28.0834     3.6480   112.6320 HW1           1 RES     
    8123 HW2         26.5064     4.0700   112.6050 HW2           1 RES     
    8124 OW          47.5454    48.8640   106.1420 OW            1 RES     
    8125 HW1         47.0534    49.0910   106.9830 HW1           1 RES     
    8126 HW2         47.2544    47.9640   105.8170 HW2           1 RES     
    8127 OW           6.4774    19.9220   113.9860 OW            1 RES     
    8128 HW1          5.8314    19.9180   114.7480 HW1           1 RES     
    8129 HW2          6.2174    20.6320   113.3310 HW2           1 RES     
    8130 OW          29.1754    44.5090   104.9460 OW            1 RES     
    8131 HW1         28.6734    45.1360   104.3510 HW1           1 RES     
    8132 HW2         29.9534    44.9870   105.3540 HW2           1 RES     
    8133 OW          23.0914     7.9770    96.0940 OW            1 RES     
    8134 HW1         22.2104     8.4480    96.0890 HW1           1 RES     
    8135 HW2         22.9434     6.9880    96.0790 HW2           1 RES     
    8136 OW          53.6704    20.4710   106.6050 OW            1 RES     
    8137 HW1         53.7794    19.5380   106.2640 HW1           1 RES     
    8138 HW2         54.5704    20.8860   106.7360 HW2           1 RES     
    8139 OW          28.9684     8.5620    94.8670 OW            1 RES     
    8140 HW1         29.1914     9.5290    94.7490 HW1           1 RES     
    8141 HW2         27.9854     8.4280    94.7350 HW2           1 RES     
    8142 OW          45.5174    43.3500   112.1990 OW            1 RES     
    8143 HW1         46.1954    42.8440   111.6670 HW1           1 RES     
    8144 HW2         44.9304    42.7070   112.6910 HW2           1 RES     
    8145 OW           0.0784    36.3310   114.1640 OW            1 RES     
    8146 HW1          0.0434    35.3510   114.3570 HW1           1 RES     
    8147 HW2          0.9414    36.7080   114.5010 HW2           1 RES     
    8148 OW          45.0004     0.9030   110.5070 OW            1 RES     
    8149 HW1         45.4574     1.4540   111.2050 HW1           1 RES     
    8150 HW2         44.0674     0.6970   110.8020 HW2           1 RES     
    8151 OW           6.2554    25.3090   111.9360 OW            1 RES     
    8152 HW1          7.2174    25.1030   112.1130 HW1           1 RES     
    8153 HW2          6.1884    26.1410   111.3850 HW2           1 RES     
    8154 OW          41.8444    38.5390   108.2360 OW            1 RES     
    8155 HW1         41.8084    37.5630   108.0220 HW1           1 RES     
    8156 HW2         40.9144    38.9060   108.2810 HW2           1 RES     
    8157 OW          11.6074    18.7590   107.1550 OW            1 RES     
    8158 HW1         10.8674    19.4290   107.1110 HW1           1 RES     
    8159 HW2         12.3294    19.0990   107.7590 HW2           1 RES     
    8160 OW          42.1314    42.5880   110.5190 OW            1 RES     
    8161 HW1         42.5414    41.8060   110.9870 HW1           1 RES     
    8162 HW2         41.9614    42.3530   109.5620 HW2           1 RES     
    8163 OW          39.0114    28.7900    97.7980 OW            1 RES     
    8164 HW1         38.8474    29.1040    98.7320 HW1           1 RES     
    8165 HW2         38.4294    29.3030    97.1660 HW2           1 RES     
    8166 OW          22.9944    43.6800   113.5410 OW            1 RES     
    8167 HW1         22.6914    42.8980   114.0850 HW1           1 RES     
    8168 HW2         22.2114    44.2680   113.3350 HW2           1 RES     
    8169 OW          15.0774    39.2580   112.1340 OW            1 RES     
    8170 HW1         14.2134    39.5330   111.7140 HW1           1 RES     
    8171 HW2         15.5034    38.5400   111.5840 HW2           1 RES     
    8172 OW          23.6804     2.4560   101.1930 OW            1 RES     
    8173 HW1         23.1744     3.2510   101.5230 HW1           1 RES     
    8174 HW2         24.3944     2.2170   101.8520 HW2           1 RES     
    8175 OW          53.6244    24.6760   115.6900 OW            1 RES     
    8176 HW1         54.3974    25.1720   116.0840 HW1           1 RES     
    8177 HW2         52.7814    24.9520   116.1510 HW2           1 RES     
    8178 OW          19.2114    33.8710    91.4190 OW            1 RES     
    8179 HW1         20.1244    33.4670    91.4620 HW1           1 RES     
    8180 HW2         18.5444    33.1640    91.1840 HW2           1 RES     
    8181 OW          56.5424     5.9380   107.9310 OW            1 RES     
    8182 HW1         56.9464     5.0240   107.9230 HW1           1 RES     
    8183 HW2         57.2364     6.6120   107.6770 HW2           1 RES     
    8184 OW          37.8494    26.5680   107.5900 OW            1 RES     
    8185 HW1         38.8464    26.5440   107.5240 HW1           1 RES     
    8186 HW2         37.4854    25.6430   107.4800 HW2           1 RES     
    8187 OW          28.9114     3.2430   114.9960 OW            1 RES     
    8188 HW1         28.5014     2.5030   114.4650 HW1           1 RES     
    8189 HW2         28.2084     3.9130   115.2340 HW2           1 RES     
    8190 OW          44.1474    34.4520   106.8470 OW            1 RES     
    8191 HW1         44.0784    33.4600   106.7450 HW1           1 RES     
    8192 HW2         44.4454    34.6720   107.7760 HW2           1 RES     
    8193 OW          21.4794    44.9460     0.0390 OW            1 RES     
    8194 HW1         21.0204    44.0660     0.1560 HW1           1 RES     
    8195 HW2         20.8094    45.6850     0.1130 HW2           1 RES     
    8196 OW          30.9564    44.4470    14.9000 OW            1 RES     
    8197 HW1         30.5234    43.5540    15.0130 HW1           1 RES     
    8198 HW2         30.3294    45.0640    14.4240 HW2           1 RES     
    8199 OW           7.2604    26.0400     9.5840 OW            1 RES     
    8200 HW1          7.3594    26.0900    10.5770 HW1           1 RES     
    8201 HW2          7.5634    25.1430     9.2630 HW2           1 RES     
    8202 OW          47.3524    13.3020    25.9230 OW            1 RES     
    8203 HW1         47.2974    12.8330    26.8040 HW1           1 RES     
    8204 HW2         47.6524    14.2460    26.0660 HW2           1 RES     
    8205 OW          26.4794    17.5510    20.4220 OW            1 RES     
    8206 HW1         26.2454    17.5830    21.3940 HW1           1 RES     
    8207 HW2         27.4734    17.5730    20.3170 HW2           1 RES     
    8208 OW          23.5704    37.4000     0.2660 OW            1 RES     
    8209 HW1         23.4474    37.2280     1.2430 HW1           1 RES     
    8210 HW2         23.0444    38.2090     0.0010 HW2           1 RES     
    8211 OW          35.2084    48.5190    16.3340 OW            1 RES     
    8212 HW1         35.6874    47.6420    16.3350 HW1           1 RES     
    8213 HW2         34.2234    48.3610    16.4160 HW2           1 RES     
    8214 OW          47.2034    11.5140     7.5600 OW            1 RES     
    8215 HW1         48.1184    11.5820     7.1630 HW1           1 RES     
    8216 HW2         46.6454    12.2810     7.2440 HW2           1 RES     
    8217 OW          45.0184    28.6490    11.5750 OW            1 RES     
    8218 HW1         45.8624    28.3030    11.1670 HW1           1 RES     
    8219 HW2         45.1894    28.9110    12.5250 HW2           1 RES     
    8220 OW          10.2354    13.6070    11.4990 OW            1 RES     
    8221 HW1          9.6764    14.4350    11.4760 HW1           1 RES     
    8222 HW2         11.1914    13.8530    11.6610 HW2           1 RES     
    8223 OW          54.0164    34.3000    23.3370 OW            1 RES     
    8224 HW1         54.4794    35.1850    23.2990 HW1           1 RES     
    8225 HW2         54.5914    33.6040    22.9080 HW2           1 RES     
    8226 OW          50.3994     7.3190    12.9010 OW            1 RES     
    8227 HW1         50.2634     6.3310    12.9770 HW1           1 RES     
    8228 HW2         49.7984     7.7890    13.5480 HW2           1 RES     
    8229 OW          57.0914    20.3160    14.5360 OW            1 RES     
    8230 HW1         56.8024    21.0290    15.1730 HW1           1 RES     
    8231 HW2         56.7454    20.5250    13.6210 HW2           1 RES     
    8232 OW          26.0124     7.3870     4.3470 OW            1 RES     
    8233 HW1         26.7814     7.9480     4.0400 HW1           1 RES     
    8234 HW2         26.3264     6.4510     4.5100 HW2           1 RES     
    8235 OW          22.5184    27.1800     8.5570 OW            1 RES     
    8236 HW1         22.0504    26.5050     9.1270 HW1           1 RES     
    8237 HW2         22.4484    28.0820     8.9820 HW2           1 RES     
    8238 OW          18.4644    30.0420     5.7550 OW            1 RES     
    8239 HW1         18.5854    31.0310     5.8280 HW1           1 RES     
    8240 HW2         18.9004    29.7130     4.9170 HW2           1 RES     
    8241 OW          41.7654    43.9270    13.7120 OW            1 RES     
    8242 HW1         42.0244    42.9620    13.7410 HW1           1 RES     
    8243 HW2         42.5784    44.4860    13.5490 HW2           1 RES     
    8244 OW          53.8554    22.8110     0.2810 OW            1 RES     
    8245 HW1         52.9354    23.1860     0.1760 HW1           1 RES     
    8246 HW2         53.8444    21.8340     0.0690 HW2           1 RES     
    8247 OW          22.9024    23.8450    23.6060 OW            1 RES     
    8248 HW1         23.7264    23.3160    23.8060 HW1           1 RES     
    8249 HW2         23.1604    24.7300    23.2180 HW2           1 RES     
    8250 OW          56.0284    10.6060     4.0670 OW            1 RES     
    8251 HW1         56.2594    10.1420     4.9220 HW1           1 RES     
    8252 HW2         56.8274    10.6170     3.4660 HW2           1 RES     
    8253 OW          11.7044     0.9750     9.3330 OW            1 RES     
    8254 HW1         11.6394     1.8590     8.8720 HW1           1 RES     
    8255 HW2         12.0684     1.1050    10.2550 HW2           1 RES     
    8256 OW          10.8964    18.3100    13.4790 OW            1 RES     
    8257 HW1         10.4284    17.4290    13.4340 HW1           1 RES     
    8258 HW2         10.2194    19.0470    13.5010 HW2           1 RES     
    8259 OW           0.0784     8.4650    21.7250 OW            1 RES     
    8260 HW1          0.0004     7.4730    21.8250 HW1           1 RES     
    8261 HW2          1.0274     8.7420    21.8720 HW2           1 RES     
    8262 OW           7.3914    49.1450    11.5670 OW            1 RES     
    8263 HW1          8.1524    49.1700    12.2150 HW1           1 RES     
    8264 HW2          6.5254    49.1730    12.0680 HW2           1 RES     
    8265 OW          51.3694    23.3360    18.9620 OW            1 RES     
    8266 HW1         51.3214    22.5990    19.6350 HW1           1 RES     
    8267 HW2         50.6894    23.1780    18.2450 HW2           1 RES     
    8268 OW          27.6404    31.3740     1.5660 OW            1 RES     
    8269 HW1         27.9624    32.2900     1.3250 HW1           1 RES     
    8270 HW2         27.6404    31.2710     2.5600 HW2           1 RES     
    8271 OW           9.0134    48.1580    17.4390 OW            1 RES     
    8272 HW1          8.8434    47.2590    17.0370 HW1           1 RES     
    8273 HW2          8.8314    48.8680    16.7580 HW2           1 RES     
    8274 OW          11.3124     6.8560    11.3040 OW            1 RES     
    8275 HW1         10.3174     6.8960    11.3890 HW1           1 RES     
    8276 HW2         11.5994     5.9040    11.1930 HW2           1 RES     
    8277 OW           3.5284    46.9920    12.0640 OW            1 RES     
    8278 HW1          2.6194    46.6180    11.8840 HW1           1 RES     
    8279 HW2          4.2164    46.2790    11.9260 HW2           1 RES     
    8280 OW          25.2884    36.7410    23.6890 OW            1 RES     
    8281 HW1         24.3954    36.6820    23.2430 HW1           1 RES     
    8282 HW2         25.9984    36.4310    23.0570 HW2           1 RES     
    8283 OW           5.2284    35.6990     8.9020 OW            1 RES     
    8284 HW1          4.3004    36.0690     8.9310 HW1           1 RES     
    8285 HW2          5.2494    34.8970     8.3050 HW2           1 RES     
    8286 OW          44.9814    18.3560    12.2280 OW            1 RES     
    8287 HW1         44.6564    19.1980    12.6580 HW1           1 RES     
    8288 HW2         45.7584    18.5640    11.6330 HW2           1 RES     
    8289 OW          19.0444     3.7770    24.3490 OW            1 RES     
    8290 HW1         19.5614     2.9210    24.3470 HW1           1 RES     
    8291 HW2         18.0684     3.5770    24.4320 HW2           1 RES     
    8292 OW          21.6584    28.0470    13.8810 OW            1 RES     
    8293 HW1         21.9094    27.1270    14.1800 HW1           1 RES     
    8294 HW2         22.1084    28.2480    13.0100 HW2           1 RES     
    8295 OW          50.5134    28.6800    19.4620 OW            1 RES     
    8296 HW1         50.1414    28.6660    20.3890 HW1           1 RES     
    8297 HW2         50.3094    27.8130    19.0060 HW2           1 RES     
    8298 OW          45.7964    22.8850     0.3540 OW            1 RES     
    8299 HW1         45.1294    22.1520     0.2200 HW1           1 RES     
    8300 HW2         46.6864    22.4890     0.5800 HW2           1 RES     
    8301 OW           5.6614     7.2400    13.9630 OW            1 RES     
    8302 HW1          6.4874     7.7920    14.0730 HW1           1 RES     
    8303 HW2          5.9164     6.3000    13.7350 HW2           1 RES     
    8304 OW          16.0864    26.0520    23.3650 OW            1 RES     
    8305 HW1         16.0694    26.2090    24.3510 HW1           1 RES     
    8306 HW2         16.9684    25.6570    23.1050 HW2           1 RES     
    8307 OW          29.5084     5.9740     1.5020 OW            1 RES     
    8308 HW1         28.6604     6.3840     1.1670 HW1           1 RES     
    8309 HW2         30.2754     6.5830     1.3000 HW2           1 RES     
    8310 OW          29.3854    48.0390     0.0970 OW            1 RES     
    8311 HW1         30.3834    48.0130     0.1320 HW1           1 RES     
    8312 HW2         29.0284    47.1070     0.0260 HW2           1 RES     
    8313 OW           5.4894    39.4070     6.3900 OW            1 RES     
    8314 HW1          5.1634    38.5580     6.8050 HW1           1 RES     
    8315 HW2          6.3674    39.2420     5.9390 HW2           1 RES     
    8316 OW          48.4964     0.4530    26.1190 OW            1 RES     
    8317 HW1         48.4364     1.1180    25.3760 HW1           1 RES     
    8318 HW2         48.5284     0.9340    26.9960 HW2           1 RES     
    8319 OW          10.2014    18.2810    18.9630 OW            1 RES     
    8320 HW1         10.5714    19.2060    18.8780 HW1           1 RES     
    8321 HW2         10.8864    17.6840    19.3800 HW2           1 RES     
    8322 OW          25.0174    40.4390    19.4930 OW            1 RES     
    8323 HW1         25.4484    40.3090    18.6010 HW1           1 RES     
    8324 HW2         25.1014    39.5990    20.0300 HW2           1 RES     
    8325 OW          56.5764    19.3220     4.6970 OW            1 RES     
    8326 HW1         56.6234    18.7590     3.8730 HW1           1 RES     
    8327 HW2         55.6914    19.1890     5.1430 HW2           1 RES     
    8328 OW          43.4944    41.3630     2.3440 OW            1 RES     
    8329 HW1         42.4984    41.3280     2.4140 HW1           1 RES     
    8330 HW2         43.7814    42.2990     2.1380 HW2           1 RES     
    8331 OW          44.1894     1.6250    20.9840 OW            1 RES     
    8332 HW1         43.6544     0.8070    20.7710 HW1           1 RES     
    8333 HW2         44.7014     1.4780    21.8310 HW2           1 RES     
    8334 OW          57.1844    37.1380    17.3300 OW            1 RES     
    8335 HW1         56.6864    37.9950    17.4570 HW1           1 RES     
    8336 HW2         56.5374    36.3760    17.3000 HW2           1 RES     
    8337 OW          46.2204    44.2500    13.5070 OW            1 RES     
    8338 HW1         46.8464    43.5230    13.7840 HW1           1 RES     
    8339 HW2         45.4014    43.8480    13.0960 HW2           1 RES     
    8340 OW          50.5374    36.5550     5.8900 OW            1 RES     
    8341 HW1         51.4954    36.3360     5.7090 HW1           1 RES     
    8342 HW2         50.2094    36.0100     6.6620 HW2           1 RES     
    8343 OW          55.5674    34.8920    10.5150 OW            1 RES     
    8344 HW1         55.0874    35.7680    10.4820 HW1           1 RES     
    8345 HW2         55.2144    34.3450    11.2740 HW2           1 RES     
    8346 OW          42.0644    47.6990    24.5460 OW            1 RES     
    8347 HW1         41.3114    47.0510    24.4350 HW1           1 RES     
    8348 HW2         41.7984    48.4110    25.1950 HW2           1 RES     
    8349 OW          48.9474     6.7230     7.7880 OW            1 RES     
    8350 HW1         48.3024     6.0060     7.5270 HW1           1 RES     
    8351 HW2         49.0884     6.7020     8.7780 HW2           1 RES     
    8352 OW          38.8214    25.1700     4.5660 OW            1 RES     
    8353 HW1         39.3064    25.3030     3.7020 HW1           1 RES     
    8354 HW2         37.8894    25.5220     4.4840 HW2           1 RES     
    8355 OW          52.9734    49.1750    25.2750 OW            1 RES     
    8356 HW1         52.0224    48.8780    25.3520 HW1           1 RES     
    8357 HW2         53.2464    49.1740    24.3120 HW2           1 RES     
    8358 OW          33.0704    38.2700    12.6170 OW            1 RES     
    8359 HW1         32.2884    37.6530    12.5280 HW1           1 RES     
    8360 HW2         33.2834    38.4030    13.5850 HW2           1 RES     
    8361 OW          22.1414    10.6260    21.9880 OW            1 RES     
    8362 HW1         22.9824    10.8730    21.5080 HW1           1 RES     
    8363 HW2         21.6344    11.4560    22.2220 HW2           1 RES     
    8364 OW          46.4664    25.6280    25.7780 OW            1 RES     
    8365 HW1         46.5674    25.8310    26.7510 HW1           1 RES     
    8366 HW2         45.7144    24.9820    25.6480 HW2           1 RES     
    8367 OW           4.5784    43.2180     9.0100 OW            1 RES     
    8368 HW1          3.8684    43.2360     9.7130 HW1           1 RES     
    8369 HW2          4.9064    42.2810     8.8900 HW2           1 RES     
    8370 OW          38.5784     5.8690    24.7490 OW            1 RES     
    8371 HW1         38.6374     6.6650    24.1470 HW1           1 RES     
    8372 HW2         39.3924     5.3000    24.6320 HW2           1 RES     
    8373 OW          22.2274    17.3900    15.7670 OW            1 RES     
    8374 HW1         21.4844    16.7230    15.7310 HW1           1 RES     
    8375 HW2         21.8474    18.3050    15.9070 HW2           1 RES     
    8376 OW          18.9404     5.8470    26.2140 OW            1 RES     
    8377 HW1         19.6404     5.1390    26.1260 HW1           1 RES     
    8378 HW2         18.0354     5.4210    26.2330 HW2           1 RES     
    8379 OW          48.0204    38.3220    23.2090 OW            1 RES     
    8380 HW1         48.2674    37.6060    23.8620 HW1           1 RES     
    8381 HW2         47.3654    38.9480    23.6330 HW2           1 RES     
    8382 OW          57.1844     2.8590    18.6500 OW            1 RES     
    8383 HW1         57.2344     2.3170    19.4880 HW1           1 RES     
    8384 HW2         56.2274     3.0640    18.4420 HW2           1 RES     
    8385 OW          42.7234     2.0630    23.6510 OW            1 RES     
    8386 HW1         43.2924     2.8050    23.2990 HW1           1 RES     
    8387 HW2         42.2064     1.6530    22.8990 HW2           1 RES     
    8388 OW          10.7684    37.4810    26.0730 OW            1 RES     
    8389 HW1         10.3524    38.3420    25.7820 HW1           1 RES     
    8390 HW2         10.0814    36.9160    26.5310 HW2           1 RES     
    8391 OW           4.9324    44.8440    20.6770 OW            1 RES     
    8392 HW1          5.3344    43.9580    20.4460 HW1           1 RES     
    8393 HW2          5.6544    45.4740    20.9620 HW2           1 RES     
    8394 OW          50.4624    38.7780     5.9180 OW            1 RES     
    8395 HW1         50.0384    39.2160     6.7100 HW1           1 RES     
    8396 HW2         50.6074    39.4570     5.1980 HW2           1 RES     
    8397 OW          19.0334     6.4090    21.3730 OW            1 RES     
    8398 HW1         19.5324     5.6270    21.7450 HW1           1 RES     
    8399 HW2         18.7174     6.9900    22.1240 HW2           1 RES     
    8400 OW          35.4234    26.9080     7.9300 OW            1 RES     
    8401 HW1         36.1684    26.4290     7.4670 HW1           1 RES     
    8402 HW2         35.2644    27.7890     7.4830 HW2           1 RES     
    8403 OW          37.4914    10.5690    21.1060 OW            1 RES     
    8404 HW1         37.0524    11.3040    20.5900 HW1           1 RES     
    8405 HW2         38.3984    10.8660    21.4040 HW2           1 RES     
    8406 OW          10.5774    40.3130    14.3890 OW            1 RES     
    8407 HW1         10.7894    39.5480    14.9970 HW1           1 RES     
    8408 HW2         10.0344    40.9920    14.8840 HW2           1 RES     
    8409 OW          46.3094    17.9310     5.2820 OW            1 RES     
    8410 HW1         45.6384    18.6090     5.5790 HW1           1 RES     
    8411 HW2         46.7224    17.4970     6.0830 HW2           1 RES     
    8412 OW          56.1684     3.3670     5.1340 OW            1 RES     
    8413 HW1         55.4344     4.0430     5.0870 HW1           1 RES     
    8414 HW2         57.0484     3.8340     5.2250 HW2           1 RES     
    8415 OW          44.2264    22.4780    20.3070 OW            1 RES     
    8416 HW1         43.9104    23.4260    20.3260 HW1           1 RES     
    8417 HW2         43.4424    21.8630    20.3940 HW2           1 RES     
    8418 OW          23.0274    44.6310     1.5700 OW            1 RES     
    8419 HW1         22.5454    43.8070     1.8640 HW1           1 RES     
    8420 HW2         23.0354    45.2980     2.3150 HW2           1 RES     
    8421 OW           2.0944     0.9370    16.6100 OW            1 RES     
    8422 HW1          1.9864     1.9250    16.5150 HW1           1 RES     
    8423 HW2          2.7544     0.7410    17.3360 HW2           1 RES     
    8424 OW          27.1274    14.1000    21.2290 OW            1 RES     
    8425 HW1         26.5624    13.2750    21.2070 HW1           1 RES     
    8426 HW2         28.0784    13.8480    21.4130 HW2           1 RES     
    8427 OW          42.9844    42.0350     9.7380 OW            1 RES     
    8428 HW1         43.9454    41.9600     9.4760 HW1           1 RES     
    8429 HW2         42.7174    42.9990     9.7570 HW2           1 RES     
    8430 OW          34.1714    24.5110    19.5600 OW            1 RES     
    8431 HW1         33.4454    25.1800    19.4020 HW1           1 RES     
    8432 HW2         35.0514    24.9810    19.6200 HW2           1 RES     
    8433 OW           5.4204    48.2420    26.2550 OW            1 RES     
    8434 HW1          6.3954    48.0490    26.1480 HW1           1 RES     
    8435 HW2          4.9154    47.3820    26.3340 HW2           1 RES     
    8436 OW           2.6724    33.5010     8.0560 OW            1 RES     
    8437 HW1          3.1304    34.2440     8.5430 HW1           1 RES     
    8438 HW2          3.1644    32.6440     8.2160 HW2           1 RES     
    8439 OW          38.1464    12.8130     3.8050 OW            1 RES     
    8440 HW1         38.0434    11.9540     3.3030 HW1           1 RES     
    8441 HW2         37.5584    13.5110     3.3960 HW2           1 RES     
    8442 OW          24.7504    19.2100    19.9800 OW            1 RES     
    8443 HW1         24.0734    19.8580    19.6320 HW1           1 RES     
    8444 HW2         25.4684    19.7070    20.4680 HW2           1 RES     
    8445 OW          27.6384    20.6280    17.6750 OW            1 RES     
    8446 HW1         27.4454    21.5990    17.5410 HW1           1 RES     
    8447 HW2         28.6114    20.4560    17.5230 HW2           1 RES     
    8448 OW          15.7464    23.5980    11.4790 OW            1 RES     
    8449 HW1         16.7084    23.8670    11.4700 HW1           1 RES     
    8450 HW2         15.2624    24.0640    10.7380 HW2           1 RES     
    8451 OW          31.7914    41.4420    19.7150 OW            1 RES     
    8452 HW1         31.4904    42.1970    19.1330 HW1           1 RES     
    8453 HW2         30.9994    40.8970    19.9900 HW2           1 RES     
    8454 OW           4.9804    46.5400     4.8060 OW            1 RES     
    8455 HW1          4.7894    45.6700     4.3520 HW1           1 RES     
    8456 HW2          4.2584    47.1960     4.5870 HW2           1 RES     
    8457 OW          41.8924    25.1090    18.7190 OW            1 RES     
    8458 HW1         42.6154    24.4280    18.6040 HW1           1 RES     
    8459 HW2         41.0274    24.6480    18.9180 HW2           1 RES     
    8460 OW          43.3304    38.1530    22.5940 OW            1 RES     
    8461 HW1         43.5184    39.0900    22.8870 HW1           1 RES     
    8462 HW2         44.1934    37.6630    22.4670 HW2           1 RES     
    8463 OW          23.7664    22.3600    14.1300 OW            1 RES     
    8464 HW1         23.2204    21.5240    14.1160 HW1           1 RES     
    8465 HW2         24.6034    22.2210    13.6000 HW2           1 RES     
    8466 OW          48.6144    25.6110     0.3620 OW            1 RES     
    8467 HW1         49.3124    24.9530     0.0850 HW1           1 RES     
    8468 HW2         47.8214    25.1230     0.7270 HW2           1 RES     
    8469 OW          22.9984    45.7960    23.5830 OW            1 RES     
    8470 HW1         23.9674    45.6730    23.3710 HW1           1 RES     
    8471 HW2         22.8394    45.5850    24.5480 HW2           1 RES     
    8472 OW          18.6324     2.7140    16.2600 OW            1 RES     
    8473 HW1         18.3534     2.3350    15.3780 HW1           1 RES     
    8474 HW2         19.6074     2.5460    16.4030 HW2           1 RES     
    8475 OW          33.3544    12.2030    14.4400 OW            1 RES     
    8476 HW1         32.6754    12.7270    13.9280 HW1           1 RES     
    8477 HW2         34.1654    12.7680    14.5940 HW2           1 RES     
    8478 OW          11.7234    34.0310    10.9530 OW            1 RES     
    8479 HW1         11.0304    34.5090    11.4920 HW1           1 RES     
    8480 HW2         12.5814    34.5430    10.9830 HW2           1 RES     
    8481 OW          19.1474    40.8390     4.8030 OW            1 RES     
    8482 HW1         18.4734    40.8500     4.0660 HW1           1 RES     
    8483 HW2         20.0604    40.7030     4.4190 HW2           1 RES     
    8484 OW          48.7264    36.1700    17.7670 OW            1 RES     
    8485 HW1         49.5534    35.6870    18.0510 HW1           1 RES     
    8486 HW2         48.3674    36.7000    18.5370 HW2           1 RES     
    8487 OW          17.7444    13.2000     8.7500 OW            1 RES     
    8488 HW1         16.8344    13.5780     8.5830 HW1           1 RES     
    8489 HW2         18.2674    13.8310     9.3240 HW2           1 RES     
    8490 OW          23.3464    36.8450    26.5880 OW            1 RES     
    8491 HW1         23.0434    37.6640    26.1020 HW1           1 RES     
    8492 HW2         24.3154    36.6850    26.4010 HW2           1 RES     
    8493 OW          45.0834    13.8850    22.7700 OW            1 RES     
    8494 HW1         45.5484    14.6750    22.3720 HW1           1 RES     
    8495 HW2         44.1284    13.8740    22.4720 HW2           1 RES     
    8496 OW          20.9594     3.9610    22.2190 OW            1 RES     
    8497 HW1         20.9134     4.4980    23.0600 HW1           1 RES     
    8498 HW2         21.8904     3.9930    21.8530 HW2           1 RES     
    8499 OW          49.3254    13.1140     5.4790 OW            1 RES     
    8500 HW1         48.3404    13.2750     5.5260 HW1           1 RES     
    8501 HW2         49.7984    13.9810     5.3220 HW2           1 RES     
    8502 OW           1.1444    22.0520     4.2440 OW            1 RES     
    8503 HW1          2.1104    22.1980     4.4540 HW1           1 RES     
    8504 HW2          0.6824    22.9360     4.1690 HW2           1 RES     
    8505 OW          42.9424     8.5180     8.5470 OW            1 RES     
    8506 HW1         42.7084     8.0320     9.3890 HW1           1 RES     
    8507 HW2         42.1204     8.9410     8.1660 HW2           1 RES     
    8508 OW           5.1074    11.7840    17.5640 OW            1 RES     
    8509 HW1          5.7264    11.8280    18.3480 HW1           1 RES     
    8510 HW2          4.9494    10.8280    17.3170 HW2           1 RES     
    8511 OW          51.3384    16.0230    10.1060 OW            1 RES     
    8512 HW1         51.4854    15.0350    10.0740 HW1           1 RES     
    8513 HW2         52.2174    16.4880    10.2140 HW2           1 RES     
    8514 OW          48.9184     9.6090     7.8370 OW            1 RES     
    8515 HW1         49.2644     9.7070     6.9040 HW1           1 RES     
    8516 HW2         49.3614     8.8280     8.2770 HW2           1 RES     
    8517 OW           7.7774     7.8290    26.9960 OW            1 RES     
    8518 HW1          6.9154     7.4490    26.6630 HW1           1 RES     
    8519 HW2          7.6974     8.8230    27.0730 HW2           1 RES     
    8520 OW           8.7304     8.8710    23.3380 OW            1 RES     
    8521 HW1          9.5664     8.4010    23.6190 HW1           1 RES     
    8522 HW2          8.9564     9.7900    23.0140 HW2           1 RES     
    8523 OW          56.0054    31.9870    12.7750 OW            1 RES     
    8524 HW1         56.6384    32.7520    12.8880 HW1           1 RES     
    8525 HW2         56.5214    31.1310    12.7310 HW2           1 RES     
    8526 OW          24.9644    23.4390     8.0810 OW            1 RES     
    8527 HW1         24.5894    22.7380     7.4750 HW1           1 RES     
    8528 HW2         25.2894    24.2120     7.5360 HW2           1 RES     
    8529 OW          49.3644    41.8640    22.2120 OW            1 RES     
    8530 HW1         50.0794    42.5480    22.0700 HW1           1 RES     
    8531 HW2         49.7374    41.0930    22.7290 HW2           1 RES     
    8532 OW           5.2884     4.1470     6.8850 OW            1 RES     
    8533 HW1          6.2634     4.1890     7.0970 HW1           1 RES     
    8534 HW2          4.8774     5.0490     7.0180 HW2           1 RES     
    8535 OW          27.3044    34.2150    23.7100 OW            1 RES     
    8536 HW1         27.3944    34.5930    24.6310 HW1           1 RES     
    8537 HW2         27.6034    34.8950    23.0400 HW2           1 RES     
    8538 OW          50.3694    15.4880    27.2270 OW            1 RES     
    8539 HW1         49.4304    15.1820    27.0740 HW1           1 RES     
    8540 HW2         50.9804    14.6970    27.2440 HW2           1 RES     
    8541 OW           4.5114    39.7120    23.1320 OW            1 RES     
    8542 HW1          5.4454    40.0540    23.2320 HW1           1 RES     
    8543 HW2          3.8764    40.3380    23.5860 HW2           1 RES     
    8544 OW          46.6224     6.0530    14.5030 OW            1 RES     
    8545 HW1         47.0854     5.1840    14.3330 HW1           1 RES     
    8546 HW2         45.6364     5.8990    14.5660 HW2           1 RES     
    8547 OW          30.4404    29.2400    15.4350 OW            1 RES     
    8548 HW1         31.1544    29.5630    16.0550 HW1           1 RES     
    8549 HW2         30.1304    28.3350    15.7260 HW2           1 RES     
    8550 OW          52.5124    35.1720    15.5970 OW            1 RES     
    8551 HW1         52.9384    35.9400    16.0750 HW1           1 RES     
    8552 HW2         53.2094    34.6720    15.0820 HW2           1 RES     
    8553 OW          35.4244    14.1300    16.5810 OW            1 RES     
    8554 HW1         34.8214    14.0280    17.3720 HW1           1 RES     
    8555 HW2         34.9934    14.7320    15.9080 HW2           1 RES     
    8556 OW          25.8824    17.9300    10.4630 OW            1 RES     
    8557 HW1         24.9454    17.6400    10.6530 HW1           1 RES     
    8558 HW2         25.9104    18.9250    10.3650 HW2           1 RES     
    8559 OW          40.2934    10.7710     8.8810 OW            1 RES     
    8560 HW1         40.7874    11.6370     8.8180 HW1           1 RES     
    8561 HW2         40.7214    10.1930     9.5770 HW2           1 RES     
    8562 OW          23.8084    19.5480    10.0420 OW            1 RES     
    8563 HW1         23.2354    19.2340    10.7980 HW1           1 RES     
    8564 HW2         23.9364    20.5380    10.1100 HW2           1 RES     
    8565 OW          40.9144    47.4880     2.8070 OW            1 RES     
    8566 HW1         40.0544    47.4050     3.3080 HW1           1 RES     
    8567 HW2         40.9974    48.4140     2.4380 HW2           1 RES     
    8568 OW          55.3404    44.8280     2.5040 OW            1 RES     
    8569 HW1         56.2024    44.9210     2.0070 HW1           1 RES     
    8570 HW2         55.4594    45.1540     3.4420 HW2           1 RES     
    8571 OW          50.5364    36.8300    11.8470 OW            1 RES     
    8572 HW1         49.6084    36.8830    12.2120 HW1           1 RES     
    8573 HW2         51.1894    37.1050    12.5530 HW2           1 RES     
    8574 OW          49.0424    12.7850    15.6950 OW            1 RES     
    8575 HW1         48.7654    11.8470    15.9040 HW1           1 RES     
    8576 HW2         48.2294    13.3540    15.5710 HW2           1 RES     
    8577 OW          37.6614     5.3660    15.6300 OW            1 RES     
    8578 HW1         36.6854     5.2640    15.8200 HW1           1 RES     
    8579 HW2         38.1304     4.5020    15.8180 HW2           1 RES     
    8580 OW           5.0324    30.2860     1.4210 OW            1 RES     
    8581 HW1          4.3994    31.0520     1.5300 HW1           1 RES     
    8582 HW2          4.6134    29.4530     1.7830 HW2           1 RES     
    8583 OW          11.0044    28.2150     9.6820 OW            1 RES     
    8584 HW1         10.2214    27.6590     9.9560 HW1           1 RES     
    8585 HW2         11.0604    29.0240    10.2670 HW2           1 RES     
    8586 OW          15.3364     6.7380    24.3670 OW            1 RES     
    8587 HW1         14.4304     6.4980    24.0230 HW1           1 RES     
    8588 HW2         15.4514     7.7320    24.3400 HW2           1 RES     
    8589 OW          11.9414    42.4330    24.9810 OW            1 RES     
    8590 HW1         11.1614    41.8340    25.1560 HW1           1 RES     
    8591 HW2         12.6964    41.8960    24.6040 HW2           1 RES     
    8592 OW           4.3164    14.4100    21.5550 OW            1 RES     
    8593 HW1          3.8424    14.6680    22.3960 HW1           1 RES     
    8594 HW2          4.7144    15.2240    21.1320 HW2           1 RES     
    8595 OW          16.1204    42.6010    24.6260 OW            1 RES     
    8596 HW1         16.1444    43.5940    24.7360 HW1           1 RES     
    8597 HW2         16.2324    42.1630    25.5180 HW2           1 RES     
    8598 OW          30.2714    29.3920     8.2420 OW            1 RES     
    8599 HW1         31.2214    29.5320     8.5180 HW1           1 RES     
    8600 HW2         29.8064    30.2760     8.1880 HW2           1 RES     
    8601 OW          21.7504    35.0440    16.7620 OW            1 RES     
    8602 HW1         22.4604    35.6770    17.0660 HW1           1 RES     
    8603 HW2         21.7634    34.9810    15.7640 HW2           1 RES     
    8604 OW          48.6904    24.5370    18.2680 OW            1 RES     
    8605 HW1         47.7774    24.3130    17.9280 HW1           1 RES     
    8606 HW2         48.7584    25.5240    18.4170 HW2           1 RES     
    8607 OW          26.9074    25.3460    20.1690 OW            1 RES     
    8608 HW1         27.3684    25.6760    19.3460 HW1           1 RES     
    8609 HW2         26.5934    24.4080    20.0230 HW2           1 RES     
    8610 OW          28.1814    40.7640     3.4110 OW            1 RES     
    8611 HW1         27.8824    41.5720     2.9050 HW1           1 RES     
    8612 HW2         29.1794    40.7090     3.3950 HW2           1 RES     
    8613 OW           9.4334    15.5920    20.3890 OW            1 RES     
    8614 HW1          8.9374    15.0150    19.7420 HW1           1 RES     
    8615 HW2          8.7814    16.1180    20.9350 HW2           1 RES     
    8616 OW           0.6964    26.2430    11.3350 OW            1 RES     
    8617 HW1          1.4504    25.5990    11.4650 HW1           1 RES     
    8618 HW2          1.0284    27.1770    11.4690 HW2           1 RES     
    8619 OW          41.1454    35.0630     7.1720 OW            1 RES     
    8620 HW1         42.1114    35.0030     6.9200 HW1           1 RES     
    8621 HW2         40.8614    34.2110     7.6110 HW2           1 RES     
    8622 OW          33.2474     9.3740    25.6290 OW            1 RES     
    8623 HW1         34.0654     9.0820    25.1360 HW1           1 RES     
    8624 HW2         33.0374     8.7130    26.3500 HW2           1 RES     
    8625 OW          49.4044    27.6160     1.7230 OW            1 RES     
    8626 HW1         48.8024    27.5130     2.5140 HW1           1 RES     
    8627 HW2         50.3294    27.3250     1.9680 HW2           1 RES     
    8628 OW          11.6804    46.6070    12.8600 OW            1 RES     
    8629 HW1         10.6844    46.6250    12.9420 HW1           1 RES     
    8630 HW2         12.0274    47.5430    12.7960 HW2           1 RES     
    8631 OW          52.3854    33.9850     4.9930 OW            1 RES     
    8632 HW1         52.2474    33.4000     4.1950 HW1           1 RES     
    8633 HW2         51.5064    34.1520     5.4410 HW2           1 RES     
    8634 OW          40.1784    45.0950     3.0380 OW            1 RES     
    8635 HW1         41.0614    44.6320     2.9640 HW1           1 RES     
    8636 HW2         39.4554    44.4900     2.7050 HW2           1 RES     
    8637 OW           7.9784    38.7440     0.8350 OW            1 RES     
    8638 HW1          7.4014    39.4290     1.2800 HW1           1 RES     
    8639 HW2          7.4194    38.1810     0.2260 HW2           1 RES     
    8640 OW          25.0834     4.1960     2.1320 OW            1 RES     
    8641 HW1         25.2894     5.0010     2.6860 HW1           1 RES     
    8642 HW2         25.9304     3.8270     1.7510 HW2           1 RES     
    8643 OW          39.6794    37.5420     7.0460 OW            1 RES     
    8644 HW1         40.4074    38.2240     7.0050 HW1           1 RES     
    8645 HW2         39.8434    36.8350     6.3580 HW2           1 RES     
    8646 OW          36.2634     4.6690    12.9730 OW            1 RES     
    8647 HW1         35.9244     5.2830    13.6840 HW1           1 RES     
    8648 HW2         35.4994     4.3610    12.4050 HW2           1 RES     
    8649 OW          37.7734    23.9530    13.1040 OW            1 RES     
    8650 HW1         37.6914    24.6980    13.7650 HW1           1 RES     
    8651 HW2         38.6844    23.9710    12.6920 HW2           1 RES     
    8652 OW          41.5934    32.5880    12.5740 OW            1 RES     
    8653 HW1         40.8574    32.3630    13.2120 HW1           1 RES     
    8654 HW2         41.5794    31.9450    11.8080 HW2           1 RES     
    8655 OW          17.2004    17.5790    12.8640 OW            1 RES     
    8656 HW1         17.5784    16.6550    12.8140 HW1           1 RES     
    8657 HW2         16.2184    17.5290    13.0480 HW2           1 RES     
    8658 OW          41.3894    40.9390    18.3380 OW            1 RES     
    8659 HW1         42.0594    41.3310    18.9670 HW1           1 RES     
    8660 HW2         40.6634    41.6040    18.1660 HW2           1 RES     
    8661 OW          50.4504    37.2260     2.6510 OW            1 RES     
    8662 HW1         51.1494    37.7460     2.1620 HW1           1 RES     
    8663 HW2         49.6014    37.2280     2.1210 HW2           1 RES     
    8664 OW          23.0054    37.4730    18.2570 OW            1 RES     
    8665 HW1         23.4844    36.7860    18.8030 HW1           1 RES     
    8666 HW2         23.5674    38.2980    18.1900 HW2           1 RES     
    8667 OW          56.6974     7.0800    19.9160 OW            1 RES     
    8668 HW1         55.7824     7.4810    19.8930 HW1           1 RES     
    8669 HW2         56.6254     6.0830    19.9480 HW2           1 RES     
    8670 OW          22.4014    13.2570    13.4590 OW            1 RES     
    8671 HW1         21.6704    13.9150    13.2780 HW1           1 RES     
    8672 HW2         22.0254    12.3300    13.4500 HW2           1 RES     
    8673 OW          12.4024    16.4270    14.8370 OW            1 RES     
    8674 HW1         12.5564    16.2930    13.8590 HW1           1 RES     
    8675 HW2         12.7464    15.6340    15.3410 HW2           1 RES     
    8676 OW          10.9674    27.2390    15.6730 OW            1 RES     
    8677 HW1         11.7114    27.7660    15.2630 HW1           1 RES     
    8678 HW2         11.0604    27.2500    16.6690 HW2           1 RES     
    8679 OW          39.8154     0.2240    23.8610 OW            1 RES     
    8680 HW1         38.8554     0.0940    24.1070 HW1           1 RES     
    8681 HW2         39.8734     0.6880    22.9770 HW2           1 RES     
    8682 OW          24.5964    24.3170     4.7100 OW            1 RES     
    8683 HW1         25.2394    23.5520     4.6740 HW1           1 RES     
    8684 HW2         25.1044    25.1790     4.7260 HW2           1 RES     
    8685 OW          38.7834    35.7570     8.3800 OW            1 RES     
    8686 HW1         38.6034    36.3880     9.1330 HW1           1 RES     
    8687 HW2         37.9404    35.6020     7.8650 HW2           1 RES     
    8688 OW           6.5194    12.9080     7.0270 OW            1 RES     
    8689 HW1          7.4104    13.1130     6.6230 HW1           1 RES     
    8690 HW2          6.6354    12.2570     7.7770 HW2           1 RES     
    8691 OW           5.8564    16.3060    15.3090 OW            1 RES     
    8692 HW1          5.0934    15.8650    14.8380 HW1           1 RES     
    8693 HW2          5.5414    16.6720    16.1860 HW2           1 RES     
    8694 OW          11.3014    23.6590     7.6470 OW            1 RES     
    8695 HW1         11.9314    24.2410     7.1350 HW1           1 RES     
    8696 HW2         10.5354    23.3960     7.0590 HW2           1 RES     
    8697 OW          33.0674    46.1380     7.2790 OW            1 RES     
    8698 HW1         33.2004    46.4580     8.2160 HW1           1 RES     
    8699 HW2         32.1414    45.7740     7.1790 HW2           1 RES     
    8700 OW           1.0304    25.9550     2.3700 OW            1 RES     
    8701 HW1          0.1024    25.5850     2.3890 HW1           1 RES     
    8702 HW2          1.6874    25.2040     2.2950 HW2           1 RES     
    8703 OW          15.5344    32.4000    12.4610 OW            1 RES     
    8704 HW1         15.9874    33.1420    12.9550 HW1           1 RES     
    8705 HW2         16.2144    31.8780    11.9470 HW2           1 RES     
    8706 OW           1.6114    43.2850    14.6050 OW            1 RES     
    8707 HW1          2.3614    42.6360    14.4780 HW1           1 RES     
    8708 HW2          0.7854    42.7910    14.8780 HW2           1 RES     
    8709 OW          33.6934    18.1640    26.4730 OW            1 RES     
    8710 HW1         33.9924    17.3710    27.0020 HW1           1 RES     
    8711 HW2         34.4194    18.4360    25.8400 HW2           1 RES     
    8712 OW          48.0024    32.9520     5.3930 OW            1 RES     
    8713 HW1         47.5074    33.5150     6.0550 HW1           1 RES     
    8714 HW2         48.3164    32.1130     5.8380 HW2           1 RES     
    8715 OW          15.3324    20.8120    25.1850 OW            1 RES     
    8716 HW1         16.0514    20.5930    25.8440 HW1           1 RES     
    8717 HW2         14.6234    21.3580    25.6330 HW2           1 RES     
    8718 OW          30.1824    22.2360    16.2690 OW            1 RES     
    8719 HW1         30.4494    23.1980    16.2110 HW1           1 RES     
    8720 HW2         31.0014    21.6630    16.2980 HW2           1 RES     
    8721 OW          28.1044    38.3360     0.2160 OW            1 RES     
    8722 HW1         27.1074    38.3970     0.2600 HW1           1 RES     
    8723 HW2         28.4634    38.0780     1.1130 HW2           1 RES     
    8724 OW          37.0594    38.8520     5.6190 OW            1 RES     
    8725 HW1         37.9584    39.2660     5.7560 HW1           1 RES     
    8726 HW2         36.3474    39.5290     5.8100 HW2           1 RES     
    8727 OW          10.4854     5.8060    22.9620 OW            1 RES     
    8728 HW1         10.1794     5.8060    23.9130 HW1           1 RES     
    8729 HW2         10.0644     6.5720    22.4760 HW2           1 RES     
    8730 OW          38.8224    28.6060     3.4170 OW            1 RES     
    8731 HW1         39.5574    29.1420     3.0030 HW1           1 RES     
    8732 HW2         38.3614    28.0690     2.7110 HW2           1 RES     
    8733 OW          36.8924     9.7760     9.1050 OW            1 RES     
    8734 HW1         36.9894     8.7830     9.1700 HW1           1 RES     
    8735 HW2         37.7544    10.2130     9.3620 HW2           1 RES     
    8736 OW          23.9894    39.3050    11.6110 OW            1 RES     
    8737 HW1         23.3984    39.6870    12.3210 HW1           1 RES     
    8738 HW2         23.5084    38.5660    11.1380 HW2           1 RES     
    8739 OW          18.9344    19.3610    16.4910 OW            1 RES     
    8740 HW1         19.2054    18.4560    16.8160 HW1           1 RES     
    8741 HW2         19.2994    19.5090    15.5710 HW2           1 RES     
    8742 OW          29.2214    16.1360    22.7860 OW            1 RES     
    8743 HW1         29.9094    16.7830    23.1150 HW1           1 RES     
    8744 HW2         28.4304    16.1500    23.3980 HW2           1 RES     
    8745 OW          23.2354    42.0120    10.3710 OW            1 RES     
    8746 HW1         23.1864    41.0140    10.3960 HW1           1 RES     
    8747 HW2         24.1934    42.3000    10.3640 HW2           1 RES     
    8748 OW          52.7854    24.2860     5.6930 OW            1 RES     
    8749 HW1         52.7294    25.1480     5.1900 HW1           1 RES     
    8750 HW2         52.2164    24.3410     6.5140 HW2           1 RES     
    8751 OW           9.7764    23.1190    12.5290 OW            1 RES     
    8752 HW1          9.5864    24.0980    12.4580 HW1           1 RES     
    8753 HW2         10.7454    22.9820    12.7350 HW2           1 RES     
    8754 OW          54.3864    28.0140    24.2420 OW            1 RES     
    8755 HW1         54.9224    28.5910    23.6260 HW1           1 RES     
    8756 HW2         54.6434    28.2090    25.1890 HW2           1 RES     
    8757 OW          23.8704     4.8010    19.8980 OW            1 RES     
    8758 HW1         23.7684     3.9970    20.4830 HW1           1 RES     
    8759 HW2         24.5614     5.4110    20.2860 HW2           1 RES     
    8760 OW          42.9664    43.0640     4.7460 OW            1 RES     
    8761 HW1         41.9914    42.9170     4.9110 HW1           1 RES     
    8762 HW2         43.4544    42.1950     4.8380 HW2           1 RES     
    8763 OW          23.6014    40.7610     6.5490 OW            1 RES     
    8764 HW1         23.3824    40.3790     7.4470 HW1           1 RES     
    8765 HW2         23.9814    40.0440     5.9650 HW2           1 RES     
    8766 OW          24.2334     1.4770    24.5240 OW            1 RES     
    8767 HW1         23.6134     1.1330    25.2290 HW1           1 RES     
    8768 HW2         24.9944     1.9620    24.9560 HW2           1 RES     
    8769 OW           6.0944    25.9540    23.3090 OW            1 RES     
    8770 HW1          6.2854    26.7380    23.8990 HW1           1 RES     
    8771 HW2          6.9474    25.6250    22.9040 HW2           1 RES     
    8772 OW          17.5334     3.2890    12.6840 OW            1 RES     
    8773 HW1         17.5534     4.2470    12.3990 HW1           1 RES     
    8774 HW2         18.4674     2.9640    12.8310 HW2           1 RES     
    8775 OW           6.5584    19.8200     5.9470 OW            1 RES     
    8776 HW1          5.9864    19.8830     5.1300 HW1           1 RES     
    8777 HW2          6.4724    18.9070     6.3450 HW2           1 RES     
    8778 OW          18.3164    35.2070    10.8380 OW            1 RES     
    8779 HW1         19.0074    35.8840    11.0900 HW1           1 RES     
    8780 HW2         18.6584    34.2900    11.0420 HW2           1 RES     
    8781 OW          15.5104    47.7090     0.2870 OW            1 RES     
    8782 HW1         16.4834    47.5450     0.1310 HW1           1 RES     
    8783 HW2         15.3024    48.6720     0.1170 HW2           1 RES     
    8784 OW          33.1804    31.2280    15.2350 OW            1 RES     
    8785 HW1         33.2284    32.2050    15.4370 HW1           1 RES     
    8786 HW2         34.0324    30.7860    15.5160 HW2           1 RES     
    8787 OW          38.0574    23.3330    22.3650 OW            1 RES     
    8788 HW1         37.1474    22.9550    22.5310 HW1           1 RES     
    8789 HW2         38.7364    22.5990    22.4080 HW2           1 RES     
    8790 OW          13.2624    21.3190    10.7100 OW            1 RES     
    8791 HW1         13.2304    21.5810     9.7450 HW1           1 RES     
    8792 HW2         13.9804    20.6370    10.8470 HW2           1 RES     
    8793 OW          56.0424     2.2800    11.3450 OW            1 RES     
    8794 HW1         55.5264     2.9430    10.8040 HW1           1 RES     
    8795 HW2         56.1824     2.6380    12.2680 HW2           1 RES     
    8796 OW          49.9504     9.2220    20.1220 OW            1 RES     
    8797 HW1         49.9994     8.5450    20.8560 HW1           1 RES     
    8798 HW2         49.2054     9.8640    20.3100 HW2           1 RES     
    8799 OW          52.2664    18.0800    23.8360 OW            1 RES     
    8800 HW1         53.0974    18.6020    23.6460 HW1           1 RES     
    8801 HW2         51.5494    18.6990    24.1570 HW2           1 RES     
    8802 OW           1.2884    46.9010    26.5130 OW            1 RES     
    8803 HW1          0.3264    46.9230    26.7840 HW1           1 RES     
    8804 HW2          1.3534    46.7630    25.5240 HW2           1 RES     
    8805 OW          15.1614    19.0970    22.2220 OW            1 RES     
    8806 HW1         15.8564    18.6580    21.6550 HW1           1 RES     
    8807 HW2         14.3234    19.2200    21.6890 HW2           1 RES     
    8808 OW          40.4684    34.2150     4.3110 OW            1 RES     
    8809 HW1         41.4074    34.4450     4.5620 HW1           1 RES     
    8810 HW2         39.9154    35.0480     4.2850 HW2           1 RES     
    8811 OW          16.6034    23.8110     2.8370 OW            1 RES     
    8812 HW1         17.5974    23.8740     2.7470 HW1           1 RES     
    8813 HW2         16.2044    24.7260     2.7770 HW2           1 RES     
    8814 OW          32.6184     9.1550    12.7930 OW            1 RES     
    8815 HW1         33.4684     8.6760    12.5800 HW1           1 RES     
    8816 HW2         31.8444     8.5350    12.6630 HW2           1 RES     
    8817 OW          46.8394     6.0380     0.1020 OW            1 RES     
    8818 HW1         46.6994     5.0530     0.0070 HW1           1 RES     
    8819 HW2         47.8194     6.2350     0.1300 HW2           1 RES     
    8820 OW          13.1874    32.1230    17.0150 OW            1 RES     
    8821 HW1         13.5464    31.5750    17.7700 HW1           1 RES     
    8822 HW2         12.2734    32.4550    17.2480 HW2           1 RES     
    8823 OW          42.9984    18.9330     9.0320 OW            1 RES     
    8824 HW1         42.3704    19.6950     8.8810 HW1           1 RES     
    8825 HW2         42.6514    18.1170     8.5680 HW2           1 RES     
    8826 OW          36.0564    31.3450    25.1530 OW            1 RES     
    8827 HW1         36.1794    32.3350    25.0940 HW1           1 RES     
    8828 HW2         35.0904    31.1380    25.3050 HW2           1 RES     
    8829 OW          56.6214    17.2620     1.2500 OW            1 RES     
    8830 HW1         57.2354    18.0510     1.2550 HW1           1 RES     
    8831 HW2         57.1044    16.4600     1.6030 HW2           1 RES     
    8832 OW          29.6754    24.5450     2.6700 OW            1 RES     
    8833 HW1         29.8584    24.4500     1.6920 HW1           1 RES     
    8834 HW2         30.1494    25.3520     3.0220 HW2           1 RES     
    8835 OW           9.3624    29.4290    24.6100 OW            1 RES     
    8836 HW1         10.0534    28.7100    24.6770 HW1           1 RES     
    8837 HW2          8.5434    29.1550    25.1140 HW2           1 RES     
    8838 OW          17.2404    43.7880    15.1350 OW            1 RES     
    8839 HW1         17.2704    44.7860    15.0910 HW1           1 RES     
    8840 HW2         18.1054    43.4140    14.8010 HW2           1 RES     
    8841 OW          46.4044    19.6020     3.4040 OW            1 RES     
    8842 HW1         47.2364    19.2260     2.9980 HW1           1 RES     
    8843 HW2         45.6044    19.2030     2.9550 HW2           1 RES     
    8844 OW          32.4064    13.8380     7.4630 OW            1 RES     
    8845 HW1         31.7484    13.1950     7.8520 HW1           1 RES     
    8846 HW2         33.2814    13.7480     7.9380 HW2           1 RES     
    8847 OW          27.2044    31.8680     5.7990 OW            1 RES     
    8848 HW1         26.9134    30.9120     5.7780 HW1           1 RES     
    8849 HW2         28.2034    31.9130     5.8140 HW2           1 RES     
    8850 OW           1.5524    23.1540    18.5740 OW            1 RES     
    8851 HW1          2.5254    23.2560    18.3680 HW1           1 RES     
    8852 HW2          1.0134    23.6590    17.9000 HW2           1 RES     
    8853 OW          31.5034    43.5870    12.3780 OW            1 RES     
    8854 HW1         32.2064    42.9420    12.0810 HW1           1 RES     
    8855 HW2         31.9354    44.3640    12.8370 HW2           1 RES     
    8856 OW          47.2464    19.1770    13.1340 OW            1 RES     
    8857 HW1         47.7374    18.3080    13.0740 HW1           1 RES     
    8858 HW2         47.9044    19.9270    13.2080 HW2           1 RES     
    8859 OW          36.1504     8.2010    21.2690 OW            1 RES     
    8860 HW1         35.8634     9.1230    21.5280 HW1           1 RES     
    8861 HW2         35.4034     7.5590    21.4400 HW2           1 RES     
    8862 OW           0.9684    47.5280     9.5050 OW            1 RES     
    8863 HW1          0.2774    47.9680    10.0780 HW1           1 RES     
    8864 HW2          1.8474    47.9870     9.6310 HW2           1 RES     
    8865 OW          41.6514    27.3810    23.8710 OW            1 RES     
    8866 HW1         42.5944    27.0610    23.7880 HW1           1 RES     
    8867 HW2         41.4784    27.6670    24.8140 HW2           1 RES     
    8868 OW          32.0074    13.8950    20.3130 OW            1 RES     
    8869 HW1         31.2264    14.5010    20.1600 HW1           1 RES     
    8870 HW2         31.7854    13.2410    21.0360 HW2           1 RES     
    8871 OW          25.3764    13.8380    27.2330 OW            1 RES     
    8872 HW1         25.5134    14.8240    27.1440 HW1           1 RES     
    8873 HW2         24.4774    13.5920    26.8690 HW2           1 RES     
    8874 OW          23.1854    44.9280    12.8080 OW            1 RES     
    8875 HW1         23.9144    45.4640    13.2300 HW1           1 RES     
    8876 HW2         23.3874    44.7930    11.8370 HW2           1 RES     
    8877 OW           8.2544     1.3190    13.2490 OW            1 RES     
    8878 HW1          7.6024     2.0610    13.0960 HW1           1 RES     
    8879 HW2          9.1834     1.6900    13.2650 HW2           1 RES     
    8880 OW          24.6464    40.5440    15.7520 OW            1 RES     
    8881 HW1         24.7854    39.8690    15.0270 HW1           1 RES     
    8882 HW2         23.6774    40.5770    15.9960 HW2           1 RES     
    8883 OW          47.1934    29.8920    16.7430 OW            1 RES     
    8884 HW1         47.9714    29.8230    16.1200 HW1           1 RES     
    8885 HW2         47.5234    30.0730    17.6700 HW2           1 RES     
    8886 OW          14.7484    37.4250    13.3920 OW            1 RES     
    8887 HW1         15.4334    36.8570    13.8470 HW1           1 RES     
    8888 HW2         14.8114    38.3630    13.7350 HW2           1 RES     
    8889 OW          49.8284    39.0790    10.2330 OW            1 RES     
    8890 HW1         50.2404    39.9890    10.2660 HW1           1 RES     
    8891 HW2         50.5484    38.3850    10.2500 HW2           1 RES     
    8892 OW           4.8144     0.9050     9.0950 OW            1 RES     
    8893 HW1          5.2924     0.5220     9.8850 HW1           1 RES     
    8894 HW2          5.3164     0.6800     8.2590 HW2           1 RES     
    8895 OW           6.1314    43.7130    17.8690 OW            1 RES     
    8896 HW1          6.6844    43.7330    18.7010 HW1           1 RES     
    8897 HW2          6.7324    43.7010    17.0700 HW2           1 RES     
    8898 OW          27.2734    45.7250    20.9000 OW            1 RES     
    8899 HW1         26.5804    45.1610    21.3470 HW1           1 RES     
    8900 HW2         27.5784    46.4400    21.5290 HW2           1 RES     
    8901 OW          15.0124    35.2060    20.2330 OW            1 RES     
    8902 HW1         15.0054    35.1270    19.2370 HW1           1 RES     
    8903 HW2         15.6314    34.5210    20.6180 HW2           1 RES     
    8904 OW          34.6454    44.7480     0.9720 OW            1 RES     
    8905 HW1         35.2354    43.9740     0.7450 HW1           1 RES     
    8906 HW2         35.2084    45.5330     1.2320 HW2           1 RES     
    8907 OW          16.3214    33.6210     6.9290 OW            1 RES     
    8908 HW1         15.7184    32.8650     6.6760 HW1           1 RES     
    8909 HW2         15.9444    34.4790     6.5800 HW2           1 RES     
    8910 OW          33.0784    32.7630    12.8780 OW            1 RES     
    8911 HW1         32.7524    33.3870    12.1690 HW1           1 RES     
    8912 HW2         32.9484    31.8180    12.5770 HW2           1 RES     
    8913 OW          11.6994    34.2320    21.8380 OW            1 RES     
    8914 HW1         10.7454    34.2250    22.1330 HW1           1 RES     
    8915 HW2         11.8224    33.5800    21.0900 HW2           1 RES     
    8916 OW          32.4554    10.0850     1.6330 OW            1 RES     
    8917 HW1         33.0794     9.9060     0.8730 HW1           1 RES     
    8918 HW2         31.6304     9.5290     1.5260 HW2           1 RES     
    8919 OW          41.0234    26.5820     2.8910 OW            1 RES     
    8920 HW1         41.0494    26.6700     3.8860 HW1           1 RES     
    8921 HW2         41.1044    27.4870     2.4730 HW2           1 RES     
    8922 OW          27.2144    49.0660     1.1470 OW            1 RES     
    8923 HW1         28.0874    49.0740     1.6340 HW1           1 RES     
    8924 HW2         27.3784    48.9420     0.1680 HW2           1 RES     
    8925 OW          42.7714    29.9770     5.9890 OW            1 RES     
    8926 HW1         41.9594    29.5520     6.3870 HW1           1 RES     
    8927 HW2         43.5924    29.5600     6.3790 HW2           1 RES     
    8928 OW          40.5484    17.3980     7.1860 OW            1 RES     
    8929 HW1         40.9984    16.8390     7.8810 HW1           1 RES     
    8930 HW2         39.8504    16.8540     6.7200 HW2           1 RES     
    8931 OW          17.1704    11.9870    23.3850 OW            1 RES     
    8932 HW1         16.3574    11.4830    23.0990 HW1           1 RES     
    8933 HW2         17.4474    12.6150    22.6570 HW2           1 RES     
    8934 OW          15.9734    44.4190    10.8040 OW            1 RES     
    8935 HW1         15.3944    45.0790    10.3280 HW1           1 RES     
    8936 HW2         15.6214    44.2710    11.7290 HW2           1 RES     
    8937 OW          20.5214    47.8350    10.8070 OW            1 RES     
    8938 HW1         19.9664    48.3670    11.4460 HW1           1 RES     
    8939 HW2         20.8434    48.4300    10.0700 HW2           1 RES     
    8940 OW          26.2734     4.9590     8.5920 OW            1 RES     
    8941 HW1         27.2614     4.8390     8.6770 HW1           1 RES     
    8942 HW2         25.9994     4.8100     7.6410 HW2           1 RES     
    8943 OW          37.1634    12.5100    17.1320 OW            1 RES     
    8944 HW1         37.9364    12.8580    17.6590 HW1           1 RES     
    8945 HW2         37.2924    11.5350    16.9520 HW2           1 RES     
    8946 OW          25.6614    39.3590    10.0060 OW            1 RES     
    8947 HW1         25.2024    39.0930     9.1600 HW1           1 RES     
    8948 HW2         25.4504    40.3140    10.2150 HW2           1 RES     
    8949 OW          16.9004     4.4640    14.8200 OW            1 RES     
    8950 HW1         16.7814     5.3240    14.3250 HW1           1 RES     
    8951 HW2         17.6964     4.5330    15.4230 HW2           1 RES     
    8952 OW          30.1344    21.3470    26.7710 OW            1 RES     
    8953 HW1         30.5644    20.4930    26.4790 HW1           1 RES     
    8954 HW2         29.1644    21.3330    26.5250 HW2           1 RES     
    8955 OW          36.2254    35.2430    10.6340 OW            1 RES     
    8956 HW1         36.1194    35.9300    11.3520 HW1           1 RES     
    8957 HW2         35.3254    34.9880    10.2800 HW2           1 RES     
    8958 OW           1.1304    39.5520    24.1860 OW            1 RES     
    8959 HW1          0.7244    39.8590    25.0460 HW1           1 RES     
    8960 HW2          0.6184    38.7670    23.8360 HW2           1 RES     
    8961 OW          44.8874    15.8220     6.4170 OW            1 RES     
    8962 HW1         43.9734    15.4210     6.3540 HW1           1 RES     
    8963 HW2         45.5734    15.0940     6.3930 HW2           1 RES     
    8964 OW          26.4824    30.8470    11.2780 OW            1 RES     
    8965 HW1         25.6894    31.4540    11.2580 HW1           1 RES     
    8966 HW2         27.3204    31.3900    11.2220 HW2           1 RES     
    8967 OW          39.0644    45.5180    12.0170 OW            1 RES     
    8968 HW1         39.6994    44.9720    11.4710 HW1           1 RES     
    8969 HW2         39.5144    46.3630    12.3050 HW2           1 RES     
    8970 OW           9.0454     0.7980    26.4960 OW            1 RES     
    8971 HW1          8.6914     1.2800    25.6960 HW1           1 RES     
    8972 HW2          9.9064     1.2170    26.7850 HW2           1 RES     
    8973 OW          53.2094     4.5860    15.2700 OW            1 RES     
    8974 HW1         53.6554     3.7170    15.4810 HW1           1 RES     
    8975 HW2         52.5874     4.8320    16.0140 HW2           1 RES     
    8976 OW          45.5094     4.1970    10.2170 OW            1 RES     
    8977 HW1         45.3944     5.1900    10.2000 HW1           1 RES     
    8978 HW2         44.7564     3.7830    10.7280 HW2           1 RES     
    8979 OW          36.9264    39.9540    23.5740 OW            1 RES     
    8980 HW1         37.3924    39.1470    23.2140 HW1           1 RES     
    8981 HW2         35.9364    39.8170    23.5260 HW2           1 RES     
    8982 OW          43.4644    20.0490    18.0000 OW            1 RES     
    8983 HW1         43.7804    20.9910    18.1120 HW1           1 RES     
    8984 HW2         42.4684    20.0190    18.0840 HW2           1 RES     
    8985 OW           4.5894    23.5480    16.9890 OW            1 RES     
    8986 HW1          5.5714    23.6840    16.8670 HW1           1 RES     
    8987 HW2          4.1014    24.3790    16.7200 HW2           1 RES     
    8988 OW          40.6324    36.5530    10.2970 OW            1 RES     
    8989 HW1         40.8954    35.5890    10.2960 HW1           1 RES     
    8990 HW2         41.4464    37.1210    10.4230 HW2           1 RES     
    8991 OW          52.1864    33.8220     7.5180 OW            1 RES     
    8992 HW1         52.9404    34.3770     7.1680 HW1           1 RES     
    8993 HW2         52.5234    32.9090     7.7490 HW2           1 RES     
    8994 OW           5.4424    14.6550     8.9870 OW            1 RES     
    8995 HW1          5.0874    14.2200     8.1600 HW1           1 RES     
    8996 HW2          6.1104    14.0510     9.4220 HW2           1 RES     
    8997 OW          48.9684     2.4870    22.3320 OW            1 RES     
    8998 HW1         49.6024     1.7240    22.4500 HW1           1 RES     
    8999 HW2         48.0434     2.1330    22.1880 HW2           1 RES     
    9000 OW          16.2204    36.7530     1.2320 OW            1 RES     
    9001 HW1         16.4184    37.7210     1.0820 HW1           1 RES     
    9002 HW2         16.6554    36.2080     0.5150 HW2           1 RES     
    9003 OW          49.7974    47.0600    23.8510 OW            1 RES     
    9004 HW1         49.4084    47.9660    24.0160 HW1           1 RES     
    9005 HW2         50.5324    46.8880    24.5080 HW2           1 RES     
    9006 OW          17.7574     7.5380    16.2280 OW            1 RES     
    9007 HW1         18.3494     7.2320    16.9720 HW1           1 RES     
    9008 HW2         17.1434     6.7950    15.9630 HW2           1 RES     
    9009 OW          32.9564    22.4830    25.1820 OW            1 RES     
    9010 HW1         33.3564    22.8770    26.0090 HW1           1 RES     
    9011 HW2         33.6814    22.0860    24.6180 HW2           1 RES     
    9012 OW          48.7674     1.7680    17.2180 OW            1 RES     
    9013 HW1         49.0364     0.8710    17.5660 HW1           1 RES     
    9014 HW2         49.5674     2.2340    16.8390 HW2           1 RES     
    9015 OW          21.0824    29.9190    26.7150 OW            1 RES     
    9016 HW1         22.0094    30.0570    27.0620 HW1           1 RES     
    9017 HW2         21.1234    29.4500    25.8320 HW2           1 RES     
    9018 OW          50.0824     2.9850    25.2860 OW            1 RES     
    9019 HW1         50.0314     2.4410    26.1230 HW1           1 RES     
    9020 HW2         50.7944     2.6140    24.6900 HW2           1 RES     
    9021 OW          13.5684     9.0490    22.3010 OW            1 RES     
    9022 HW1         13.3224     8.1690    22.7060 HW1           1 RES     
    9023 HW2         14.2394     9.5090    22.8840 HW2           1 RES     
    9024 OW          40.4994    20.5280    18.9240 OW            1 RES     
    9025 HW1         39.9754    19.7080    18.6950 HW1           1 RES     
    9026 HW2         39.8834    21.3150    18.9730 HW2           1 RES     
    9027 OW           5.6074    23.5220    10.1540 OW            1 RES     
    9028 HW1          4.7254    23.1380     9.8820 HW1           1 RES     
    9029 HW2          5.9064    23.0980    11.0090 HW2           1 RES     
    9030 OW           0.0054    34.7110     8.8210 OW            1 RES     
    9031 HW1          0.0874    34.8880     9.8010 HW1           1 RES     
    9032 HW2          0.7534    35.1660     8.3360 HW2           1 RES     
    9033 OW          25.1834    43.9900    24.1030 OW            1 RES     
    9034 HW1         25.9464    43.4320    24.4270 HW1           1 RES     
    9035 HW2         24.3894    43.8470    24.6940 HW2           1 RES     
    9036 OW           5.6324    21.8240     6.9180 OW            1 RES     
    9037 HW1          4.8364    22.1210     7.4440 HW1           1 RES     
    9038 HW2          6.3804    21.5990     7.5420 HW2           1 RES     
    9039 OW          52.4294     9.5800    13.6300 OW            1 RES     
    9040 HW1         51.5244     9.8100    13.9850 HW1           1 RES     
    9041 HW2         53.1034    10.2270    13.9890 HW2           1 RES     
    9042 OW          48.3944    18.4300     4.7700 OW            1 RES     
    9043 HW1         48.4924    17.4640     4.5330 HW1           1 RES     
    9044 HW2         49.0704    18.9680     4.2660 HW2           1 RES     
    9045 OW          54.5084    33.5610     3.3060 OW            1 RES     
    9046 HW1         55.4424    33.5840     2.9490 HW1           1 RES     
    9047 HW2         54.2384    32.6120     3.4730 HW2           1 RES     
    9048 OW          13.7184    12.7050     5.3000 OW            1 RES     
    9049 HW1         13.2854    12.8290     4.4080 HW1           1 RES     
    9050 HW2         13.7454    11.7310     5.5250 HW2           1 RES     
    9051 OW           7.2344    24.6130     6.9000 OW            1 RES     
    9052 HW1          6.2504    24.7750     6.9680 HW1           1 RES     
    9053 HW2          7.4044    23.6360     6.7740 HW2           1 RES     
    9054 OW          41.4734    39.0700    11.6540 OW            1 RES     
    9055 HW1         41.7874    39.9500    12.0090 HW1           1 RES     
    9056 HW2         41.8094    38.3330    12.2410 HW2           1 RES     
    9057 OW          25.0234    34.8140     3.2600 OW            1 RES     
    9058 HW1         24.2594    34.8650     3.9030 HW1           1 RES     
    9059 HW2         25.5134    33.9520     3.3920 HW2           1 RES     
    9060 OW          43.3824     3.6170     3.6330 OW            1 RES     
    9061 HW1         44.3414     3.3450     3.6980 HW1           1 RES     
    9062 HW2         43.0644     3.9370     4.5250 HW2           1 RES     
    9063 OW          51.9814    44.7600    25.2430 OW            1 RES     
    9064 HW1         51.0654    44.7400    25.6440 HW1           1 RES     
    9065 HW2         52.3614    45.6820    25.3270 HW2           1 RES     
    9066 OW          31.6924    44.5580     2.6950 OW            1 RES     
    9067 HW1         32.0684    45.0580     3.4740 HW1           1 RES     
    9068 HW2         31.2814    43.7040     3.0130 HW2           1 RES     
    9069 OW          29.6704     6.2300     5.5730 OW            1 RES     
    9070 HW1         29.9054     6.8520     6.3190 HW1           1 RES     
    9071 HW2         28.7324     5.9040     5.6940 HW2           1 RES     
    9072 OW          53.5874    20.4750     8.5500 OW            1 RES     
    9073 HW1         53.1914    21.3720     8.7430 HW1           1 RES     
    9074 HW2         54.5804    20.5610     8.4640 HW2           1 RES     
    9075 OW           4.5984    19.8810     9.3170 OW            1 RES     
    9076 HW1          5.5424    19.8980     8.9890 HW1           1 RES     
    9077 HW2          4.0334    20.4690     8.7390 HW2           1 RES     
    9078 OW           0.2364    27.1750    14.2510 OW            1 RES     
    9079 HW1          1.1054    27.2380    13.7610 HW1           1 RES     
    9080 HW2          0.0014    26.2130    14.3910 HW2           1 RES     
    9081 OW          27.2084    10.5420    26.3860 OW            1 RES     
    9082 HW1         27.8134    10.9660    27.0590 HW1           1 RES     
    9083 HW2         26.9684     9.6190    26.6870 HW2           1 RES     
    9084 OW          34.7064     3.6940    17.3260 OW            1 RES     
    9085 HW1         34.7214     3.0070    18.0520 HW1           1 RES     
    9086 HW2         34.6784     3.2380    16.4360 HW2           1 RES     
    9087 OW          33.0854    16.8920    18.5550 OW            1 RES     
    9088 HW1         33.8554    17.5300    18.5690 HW1           1 RES     
    9089 HW2         33.4304    15.9540    18.5180 HW2           1 RES     
    9090 OW          22.4704     6.9760    12.9280 OW            1 RES     
    9091 HW1         22.7064     6.0060    12.9660 HW1           1 RES     
    9092 HW2         22.7744     7.3600    12.0560 HW2           1 RES     
    9093 OW           4.1224    42.8620     0.7350 OW            1 RES     
    9094 HW1          5.0074    43.3260     0.7200 HW1           1 RES     
    9095 HW2          3.4014    43.5270     0.9330 HW2           1 RES     
    9096 OW           5.1574    38.9860     2.9900 OW            1 RES     
    9097 HW1          5.7364    39.5960     3.5310 HW1           1 RES     
    9098 HW2          5.0034    38.1370     3.4950 HW2           1 RES     
    9099 OW          21.1734    24.1060    16.3980 OW            1 RES     
    9100 HW1         20.6224    23.2930    16.2150 HW1           1 RES     
    9101 HW2         22.0364    24.0440    15.8960 HW2           1 RES     
    9102 OW          25.3174    15.9160     5.7770 OW            1 RES     
    9103 HW1         25.2824    16.3740     6.6650 HW1           1 RES     
    9104 HW2         24.5424    16.2120     5.2180 HW2           1 RES     
    9105 OW          12.6764    32.8670     7.0960 OW            1 RES     
    9106 HW1         11.9154    33.4960     7.2520 HW1           1 RES     
    9107 HW2         13.4234    33.3530     6.6410 HW2           1 RES     
    9108 OW          32.9384    21.3710    18.3340 OW            1 RES     
    9109 HW1         32.4004    22.1340    17.9770 HW1           1 RES     
    9110 HW2         32.6014    21.1200    19.2410 HW2           1 RES     
    9111 OW          23.3384     2.7400    16.0180 OW            1 RES     
    9112 HW1         22.3414     2.7560    16.0870 HW1           1 RES     
    9113 HW2         23.6284     3.3040    15.2450 HW2           1 RES     
    9114 OW          30.6214     8.0250    22.7490 OW            1 RES     
    9115 HW1         31.6104     7.9770    22.8870 HW1           1 RES     
    9116 HW2         30.2764     7.1210    22.4940 HW2           1 RES     
    9117 OW          56.1224    21.1650    11.1330 OW            1 RES     
    9118 HW1         56.8864    20.5380    11.2850 HW1           1 RES     
    9119 HW2         55.4534    21.0600    11.8680 HW2           1 RES     
    9120 OW          52.1954    39.6280    12.6420 OW            1 RES     
    9121 HW1         52.8494    38.9290    12.9300 HW1           1 RES     
    9122 HW2         51.8154    39.3820    11.7500 HW2           1 RES     
    9123 OW          28.4944    17.4510    12.1830 OW            1 RES     
    9124 HW1         28.7704    16.6910    12.7710 HW1           1 RES     
    9125 HW2         27.4994    17.5500    12.2130 HW2           1 RES     
    9126 OW          40.8334    38.1810    16.6980 OW            1 RES     
    9127 HW1         41.7534    37.7900    16.7150 HW1           1 RES     
    9128 HW2         40.1564    37.4450    16.7170 HW2           1 RES     
    9129 OW          50.7814    26.1760    10.5200 OW            1 RES     
    9130 HW1         50.0004    25.6950    10.9180 HW1           1 RES     
    9131 HW2         50.9644    25.8160     9.6050 HW2           1 RES     
    9132 OW           2.7434    31.0370    16.9690 OW            1 RES     
    9133 HW1          2.8054    30.0730    17.2250 HW1           1 RES     
    9134 HW2          3.6484    31.3700    16.7010 HW2           1 RES     
    9135 OW          27.6344    24.1060    12.7670 OW            1 RES     
    9136 HW1         28.2754    23.7550    12.0860 HW1           1 RES     
    9137 HW2         27.2204    23.3410    13.2610 HW2           1 RES     
    9138 OW          13.6554    47.3390    24.1060 OW            1 RES     
    9139 HW1         12.9724    46.8070    24.6050 HW1           1 RES     
    9140 HW2         13.2124    47.8300    23.3560 HW2           1 RES     
    9141 OW          24.7134     7.0090    17.6250 OW            1 RES     
    9142 HW1         24.4264     6.2690    18.2330 HW1           1 RES     
    9143 HW2         24.7394     6.6760    16.6820 HW2           1 RES     
    9144 OW          45.9694    30.8090    10.7470 OW            1 RES     
    9145 HW1         45.5204    31.2260    11.5360 HW1           1 RES     
    9146 HW2         45.2794    30.5190    10.0840 HW2           1 RES     
    9147 OW          35.1704    45.5520    17.9230 OW            1 RES     
    9148 HW1         36.1674    45.5880    17.8600 HW1           1 RES     
    9149 HW2         34.8104    46.4740    18.0670 HW2           1 RES     
    9150 OW          34.9524     5.8250    18.2090 OW            1 RES     
    9151 HW1         35.6914     6.4980    18.2280 HW1           1 RES     
    9152 HW2         34.0714     6.2970    18.1770 HW2           1 RES     
    9153 OW           0.9304    30.7750    11.9530 OW            1 RES     
    9154 HW1          1.3864    30.8640    11.0680 HW1           1 RES     
    9155 HW2          0.0074    30.4140    11.8180 HW2           1 RES     
    9156 OW           3.1834    28.7650    10.9110 OW            1 RES     
    9157 HW1          2.4574    29.0590    10.2900 HW1           1 RES     
    9158 HW2          2.7914    28.5540    11.8070 HW2           1 RES     
    9159 OW          26.6184    28.4300     8.2000 OW            1 RES     
    9160 HW1         26.7114    29.1550     8.8800 HW1           1 RES     
    9161 HW2         26.2184    28.8050     7.3630 HW2           1 RES     
    9162 OW          32.6114    27.2670     0.4310 OW            1 RES     
    9163 HW1         31.7084    27.1830     0.0110 HW1           1 RES     
    9164 HW2         33.1534    26.4520     0.2240 HW2           1 RES     
    9165 OW          25.5674     5.1920    22.3310 OW            1 RES     
    9166 HW1         26.5634     5.1450    22.2590 HW1           1 RES     
    9167 HW2         25.2214     4.3440    22.7320 HW2           1 RES     
    9168 OW          42.0704     3.7100    10.2770 OW            1 RES     
    9169 HW1         41.7634     2.9450    10.8430 HW1           1 RES     
    9170 HW2         42.8364     3.4150     9.7060 HW2           1 RES     
    9171 OW          34.3284    23.0390     9.8310 OW            1 RES     
    9172 HW1         33.9464    22.1150     9.8380 HW1           1 RES     
    9173 HW2         33.5834    23.7070     9.8330 HW2           1 RES     
    9174 OW          17.5854    33.4620    24.2920 OW            1 RES     
    9175 HW1         17.5004    33.8440    23.3730 HW1           1 RES     
    9176 HW2         17.7254    32.4740    24.2320 HW2           1 RES     
    9177 OW          33.5094    31.9830    10.1080 OW            1 RES     
    9178 HW1         32.5844    32.3420    10.2290 HW1           1 RES     
    9179 HW2         33.8984    32.3410     9.2590 HW2           1 RES     
    9180 OW          33.4244    47.2560     5.2210 OW            1 RES     
    9181 HW1         33.1104    46.3190     5.0690 HW1           1 RES     
    9182 HW2         34.3914    47.2470     5.4740 HW2           1 RES     
    9183 OW          48.9404    45.1880     7.3090 OW            1 RES     
    9184 HW1         49.8344    45.0740     7.7400 HW1           1 RES     
    9185 HW2         48.5184    46.0340     7.6340 HW2           1 RES     
    9186 OW          48.8254    14.3540     3.3840 OW            1 RES     
    9187 HW1         48.6044    14.4720     2.4160 HW1           1 RES     
    9188 HW2         48.1614    14.8530     3.9410 HW2           1 RES     
    9189 OW          46.0624    30.4760    14.9200 OW            1 RES     
    9190 HW1         45.5444    30.9760    15.6130 HW1           1 RES     
    9191 HW2         45.6654    29.5660    14.7990 HW2           1 RES     
    9192 OW          43.8544    39.2600    17.4350 OW            1 RES     
    9193 HW1         44.1724    39.0630    16.5080 HW1           1 RES     
    9194 HW2         43.0734    39.8840    17.3940 HW2           1 RES     
    9195 OW          19.4324    33.5010    17.2830 OW            1 RES     
    9196 HW1         20.2174    33.0760    17.7320 HW1           1 RES     
    9197 HW2         18.9904    34.1380    17.9160 HW2           1 RES     
    9198 OW          33.4324    27.7710     9.9300 OW            1 RES     
    9199 HW1         32.9454    26.9000     9.9860 HW1           1 RES     
    9200 HW2         34.4054    27.6000     9.7760 HW2           1 RES     
    9201 OW           9.7814    31.9330    16.8710 OW            1 RES     
    9202 HW1         10.3144    31.2770    17.4050 HW1           1 RES     
    9203 HW2          9.2084    31.4420    16.2150 HW2           1 RES     
    9204 OW          21.9884    31.8600    11.2420 OW            1 RES     
    9205 HW1         21.8194    31.3810    12.1020 HW1           1 RES     
    9206 HW2         22.9694    31.8650    11.0490 HW2           1 RES     
    9207 OW          41.5104    33.3200    23.9500 OW            1 RES     
    9208 HW1         42.2674    33.1930    23.3100 HW1           1 RES     
    9209 HW2         41.5774    34.2250    24.3710 HW2           1 RES     
    9210 OW           5.6474    36.9280    20.4890 OW            1 RES     
    9211 HW1          4.9764    36.1940    20.5900 HW1           1 RES     
    9212 HW2          5.9274    37.2500    21.3940 HW2           1 RES     
    9213 OW          26.9504    31.6520    17.0610 OW            1 RES     
    9214 HW1         27.8284    31.3080    16.7300 HW1           1 RES     
    9215 HW2         26.7554    32.5350    16.6330 HW2           1 RES     
    9216 OW          23.9814    30.4880    15.9690 OW            1 RES     
    9217 HW1         24.1104    31.4790    15.9930 HW1           1 RES     
    9218 HW2         23.0034    30.2780    15.9790 HW2           1 RES     
    9219 OW          21.9924    47.3770    16.6950 OW            1 RES     
    9220 HW1         21.3434    46.7270    17.0890 HW1           1 RES     
    9221 HW2         22.9254    47.0470    16.8390 HW2           1 RES     
    9222 OW           5.8534    31.1570    17.9870 OW            1 RES     
    9223 HW1          6.2694    31.7790    17.3240 HW1           1 RES     
    9224 HW2          6.5704    30.7250    18.5350 HW2           1 RES     
    9225 OW          54.4914    25.9950    26.0090 OW            1 RES     
    9226 HW1         54.6454    26.5950    26.7930 HW1           1 RES     
    9227 HW2         55.3654    25.6180    25.7010 HW2           1 RES     
    9228 OW           9.1594    46.9900     7.7340 OW            1 RES     
    9229 HW1          8.1724    47.0140     7.5840 HW1           1 RES     
    9230 HW2          9.5574    46.2290     7.2200 HW2           1 RES     
    9231 OW          14.5434    43.0700    17.7170 OW            1 RES     
    9232 HW1         14.6144    44.0600    17.6050 HW1           1 RES     
    9233 HW2         15.4574    42.6800    17.8270 HW2           1 RES     
    9234 OW          47.5414    34.7370    23.1560 OW            1 RES     
    9235 HW1         46.7934    35.2220    22.7040 HW1           1 RES     
    9236 HW2         47.5544    34.9750    24.1280 HW2           1 RES     
    9237 OW          30.2354    27.0860    17.7440 OW            1 RES     
    9238 HW1         31.1094    27.5610    17.6490 HW1           1 RES     
    9239 HW2         29.5054    27.7540    17.8860 HW2           1 RES     
    9240 OW          42.3894    17.1590    13.5610 OW            1 RES     
    9241 HW1         42.1554    17.7870    12.8190 HW1           1 RES     
    9242 HW2         42.1024    17.5520    14.4350 HW2           1 RES     
    9243 OW          39.7664    16.7630     1.0140 OW            1 RES     
    9244 HW1         40.3344    16.1970     1.6110 HW1           1 RES     
    9245 HW2         40.2204    17.6400     0.8550 HW2           1 RES     
    9246 OW          38.8234    48.6570    21.4700 OW            1 RES     
    9247 HW1         39.1264    48.2560    22.3330 HW1           1 RES     
    9248 HW2         39.6084    49.0460    20.9880 HW2           1 RES     
    9249 OW          31.5914    17.9730    13.8230 OW            1 RES     
    9250 HW1         32.4334    17.8470    14.3470 HW1           1 RES     
    9251 HW2         30.8114    17.6570    14.3630 HW2           1 RES     
    9252 OW          11.1504    25.0950    16.1500 OW            1 RES     
    9253 HW1         11.9584    24.5160    16.2490 HW1           1 RES     
    9254 HW2         10.4034    24.7230    16.7020 HW2           1 RES     
    9255 OW          15.2804    24.5670     0.6840 OW            1 RES     
    9256 HW1         15.7884    25.4170     0.5480 HW1           1 RES     
    9257 HW2         14.4824    24.7430     1.2600 HW2           1 RES     
    9258 OW          37.0414    41.6130     1.7290 OW            1 RES     
    9259 HW1         36.4594    42.3310     2.1100 HW1           1 RES     
    9260 HW2         37.9814    41.9480     1.6590 HW2           1 RES     
    9261 OW          50.0314    42.0320    26.8370 OW            1 RES     
    9262 HW1         49.2334    42.4390    27.2800 HW1           1 RES     
    9263 HW2         50.6564    42.7560    26.5440 HW2           1 RES     
    9264 OW          40.2184    40.4330    22.3310 OW            1 RES     
    9265 HW1         40.4824    41.3410    22.0080 HW1           1 RES     
    9266 HW2         39.2214    40.3520    22.3210 HW2           1 RES     
    9267 OW           1.0464    10.8590    11.6360 OW            1 RES     
    9268 HW1          1.7334    10.3000    12.1000 HW1           1 RES     
    9269 HW2          1.3104    10.9860    10.6790 HW2           1 RES     
    9270 OW          41.0454    10.9620    21.1620 OW            1 RES     
    9271 HW1         40.4724    11.1700    20.3700 HW1           1 RES     
    9272 HW2         41.7804    11.6380    21.2290 HW2           1 RES     
    9273 OW           0.8324    13.1520    19.6640 OW            1 RES     
    9274 HW1          1.0564    13.5980    18.7990 HW1           1 RES     
    9275 HW2          0.0014    12.6050    19.5530 HW2           1 RES     
    9276 OW          16.7004    16.7790    26.4450 OW            1 RES     
    9277 HW1         16.3444    17.2150    27.2710 HW1           1 RES     
    9278 HW2         17.5924    17.1730    26.2180 HW2           1 RES     
    9279 OW          25.3014    41.4280    26.9400 OW            1 RES     
    9280 HW1         25.7034    42.2900    27.2490 HW1           1 RES     
    9281 HW2         24.3254    41.5580    26.7660 HW2           1 RES     
    9282 OW          50.3584    33.0700     1.3500 OW            1 RES     
    9283 HW1         49.7714    32.7660     0.6000 HW1           1 RES     
    9284 HW2         49.8514    33.7020     1.9360 HW2           1 RES     
    9285 OW           1.5704     8.7960    15.2350 OW            1 RES     
    9286 HW1          2.4344     8.3850    15.5230 HW1           1 RES     
    9287 HW2          0.9164     8.0730    15.0070 HW2           1 RES     
    9288 OW          34.8734    16.2200     5.6290 OW            1 RES     
    9289 HW1         35.6924    16.7930     5.6150 HW1           1 RES     
    9290 HW2         34.0594    16.8010     5.6240 HW2           1 RES     
    9291 OW          42.6324    17.6980     6.4090 OW            1 RES     
    9292 HW1         42.2864    18.4860     5.9000 HW1           1 RES     
    9293 HW2         43.6314    17.6780     6.3540 HW2           1 RES     
    9294 OW           9.9554     5.2610    15.8480 OW            1 RES     
    9295 HW1          8.9934     5.3860    15.6080 HW1           1 RES     
    9296 HW2         10.4444     6.1260    15.7290 HW2           1 RES     
    9297 OW          35.8234    21.0930    14.9500 OW            1 RES     
    9298 HW1         36.7984    21.1580    14.7390 HW1           1 RES     
    9299 HW2         35.6194    20.1820    15.3100 HW2           1 RES     
    9300 OW          12.8004    35.1710    13.1000 OW            1 RES     
    9301 HW1         12.7484    35.0860    14.0940 HW1           1 RES     
    9302 HW2         13.7094    35.4960    12.8390 HW2           1 RES     
    9303 OW           0.9934    41.1800     6.2150 OW            1 RES     
    9304 HW1          0.1664    41.1080     5.6580 HW1           1 RES     
    9305 HW2          0.8444    40.7240     7.0930 HW2           1 RES     
    9306 OW          14.2824    15.7820     0.4040 OW            1 RES     
    9307 HW1         15.0214    15.1390     0.6040 HW1           1 RES     
    9308 HW2         14.2164    16.4540     1.1420 HW2           1 RES     
    9309 OW           3.8244    14.9010     3.6640 OW            1 RES     
    9310 HW1          3.0714    15.0580     4.3010 HW1           1 RES     
    9311 HW2          3.6294    14.0900     3.1110 HW2           1 RES     
    9312 OW          48.3194     4.3220     2.2620 OW            1 RES     
    9313 HW1         48.4914     5.1750     2.7550 HW1           1 RES     
    9314 HW2         47.4224     3.9630     2.5210 HW2           1 RES     
    9315 OW          34.0194     6.9710    15.6350 OW            1 RES     
    9316 HW1         34.6984     6.2670    15.8370 HW1           1 RES     
    9317 HW2         33.1514     6.7320    16.0710 HW2           1 RES     
    9318 OW          46.3424    30.1570     7.9220 OW            1 RES     
    9319 HW1         46.6054    31.1130     7.7980 HW1           1 RES     
    9320 HW2         47.1364    29.5690     7.7690 HW2           1 RES     
    9321 OW           1.5004     5.5500    15.9780 OW            1 RES     
    9322 HW1          0.6014     5.9670    15.8510 HW1           1 RES     
    9323 HW2          2.1914     6.2680    16.0680 HW2           1 RES     
    9324 OW          25.1004    28.1730    14.4990 OW            1 RES     
    9325 HW1         25.6544    28.6850    13.8440 HW1           1 RES     
    9326 HW2         24.2384    28.6550    14.6580 HW2           1 RES     
    9327 OW          54.1374     9.9630     5.5040 OW            1 RES     
    9328 HW1         53.5834     9.3200     6.0330 HW1           1 RES     
    9329 HW2         53.5474    10.6700     5.1140 HW2           1 RES     
    9330 OW          22.7224     9.5120    12.8440 OW            1 RES     
    9331 HW1         22.7154     9.2310    13.8040 HW1           1 RES     
    9332 HW2         23.6434     9.8060    12.5890 HW2           1 RES     
    9333 OW          46.4604    24.8430    23.0650 OW            1 RES     
    9334 HW1         47.4034    25.1360    22.9130 HW1           1 RES     
    9335 HW2         46.1624    24.2690    22.3020 HW2           1 RES     
    9336 OW          41.6854     5.5700    23.7650 OW            1 RES     
    9337 HW1         42.0784     4.9230    24.4180 HW1           1 RES     
    9338 HW2         41.7674     6.4990    24.1260 HW2           1 RES     
    9339 OW          54.3094    41.1040    16.6660 OW            1 RES     
    9340 HW1         53.3624    40.8090    16.7900 HW1           1 RES     
    9341 HW2         54.9264    40.3970    17.0110 HW2           1 RES     
    9342 OW          10.9444    35.7940     0.4840 OW            1 RES     
    9343 HW1         10.6774    35.9110     1.4400 HW1           1 RES     
    9344 HW2         11.5374    36.5500     0.2080 HW2           1 RES     
    9345 OW          15.8864    21.3630     0.5480 OW            1 RES     
    9346 HW1         16.5104    21.0280     1.2540 HW1           1 RES     
    9347 HW2         16.0614    22.3340     0.3820 HW2           1 RES     
    9348 OW          37.1584    11.5780     0.4860 OW            1 RES     
    9349 HW1         38.0044    11.3600     0.9710 HW1           1 RES     
    9350 HW2         36.4844    11.9350     1.1330 HW2           1 RES     
    9351 OW          32.9334    40.8120    24.2380 OW            1 RES     
    9352 HW1         33.4934    40.7870    23.4100 HW1           1 RES     
    9353 HW2         31.9684    40.7200    23.9910 HW2           1 RES     
    9354 OW          44.4904    29.0360    18.0390 OW            1 RES     
    9355 HW1         45.0794    28.3110    18.3940 HW1           1 RES     
    9356 HW2         44.9824    29.9060    18.0600 HW2           1 RES     
    9357 OW          46.4064    19.7980     0.9320 OW            1 RES     
    9358 HW1         47.1124    19.1050     0.7940 HW1           1 RES     
    9359 HW2         45.5084    19.4030     0.7360 HW2           1 RES     
    9360 OW          52.2174    27.7400     7.5790 OW            1 RES     
    9361 HW1         52.2564    28.7380     7.5400 HW1           1 RES     
    9362 HW2         51.3594    27.4240     7.1730 HW2           1 RES     
    9363 OW          42.7584    37.6260    25.3590 OW            1 RES     
    9364 HW1         41.9214    38.0450    25.0090 HW1           1 RES     
    9365 HW2         43.2734    37.2250    24.6000 HW2           1 RES     
    9366 OW          55.3674    47.1330    18.7700 OW            1 RES     
    9367 HW1         55.1474    46.1610    18.6960 HW1           1 RES     
    9368 HW2         56.3564    47.2580    18.6960 HW2           1 RES     
    9369 OW          50.8574    30.2040     3.0810 OW            1 RES     
    9370 HW1         51.8554    30.2580     3.0850 HW1           1 RES     
    9371 HW2         50.4724    31.1270     3.0950 HW2           1 RES     
    9372 OW          30.8544    25.6520    12.1660 OW            1 RES     
    9373 HW1         30.1164    25.9710    11.5730 HW1           1 RES     
    9374 HW2         31.5954    26.3240    12.1660 HW2           1 RES     
    9375 OW           4.1294     4.9780    16.0860 OW            1 RES     
    9376 HW1          3.3754     4.4170    15.7430 HW1           1 RES     
    9377 HW2          4.5914     5.4210    15.3180 HW2           1 RES     
    9378 OW          18.4494    18.4070     3.1970 OW            1 RES     
    9379 HW1         18.3694    19.4010     3.2680 HW1           1 RES     
    9380 HW2         17.5774    17.9830     3.4420 HW2           1 RES     
    9381 OW           7.8394    27.0290     6.1590 OW            1 RES     
    9382 HW1          7.8854    27.6440     5.3720 HW1           1 RES     
    9383 HW2          8.4364    26.2420     6.0040 HW2           1 RES     
    9384 OW          31.1304    35.2890     6.8490 OW            1 RES     
    9385 HW1         31.9604    35.8300     6.7170 HW1           1 RES     
    9386 HW2         31.3594    34.3160     6.8310 HW2           1 RES     
    9387 OW          53.5284    12.4610    23.1390 OW            1 RES     
    9388 HW1         53.5164    12.5650    22.1450 HW1           1 RES     
    9389 HW2         53.4034    11.4970    23.3760 HW2           1 RES     
    9390 OW          36.4324    23.0430     4.2550 OW            1 RES     
    9391 HW1         37.3494    23.3730     4.0340 HW1           1 RES     
    9392 HW2         36.1814    22.3080     3.6260 HW2           1 RES     
    9393 OW          23.1064     1.2090    19.6520 OW            1 RES     
    9394 HW1         23.7564     1.0210    18.9160 HW1           1 RES     
    9395 HW2         23.2664     0.5750    20.4090 HW2           1 RES     
    9396 OW          42.8724    27.6840    18.6680 OW            1 RES     
    9397 HW1         43.1184    28.1340    19.5260 HW1           1 RES     
    9398 HW2         43.4064    26.8450    18.5660 HW2           1 RES     
    9399 OW          48.1394    29.7310     1.3090 OW            1 RES     
    9400 HW1         47.7654    30.6570     1.2580 HW1           1 RES     
    9401 HW2         47.4334    29.0710     1.0530 HW2           1 RES     
    9402 OW          25.2514    44.5380    27.1170 OW            1 RES     
    9403 HW1         25.4954    45.0430    26.2900 HW1           1 RES     
    9404 HW2         24.2684    44.6190    27.2800 HW2           1 RES     
    9405 OW           2.3024     9.1500     2.7580 OW            1 RES     
    9406 HW1          2.9594     8.3970     2.7170 HW1           1 RES     
    9407 HW2          2.3494     9.5860     3.6570 HW2           1 RES     
    9408 OW           2.9954    33.4650    20.1820 OW            1 RES     
    9409 HW1          2.1124    33.2970    19.7470 HW1           1 RES     
    9410 HW2          3.3234    34.3760    19.9310 HW2           1 RES     
    9411 OW          42.2574     0.1310     9.7550 OW            1 RES     
    9412 HW1         42.8904     0.8760     9.5500 HW1           1 RES     
    9413 HW2         41.5494     0.0910     9.0490 HW2           1 RES     
    9414 OW          24.0984    42.0740    13.0820 OW            1 RES     
    9415 HW1         23.1464    41.7990    12.9560 HW1           1 RES     
    9416 HW2         24.2014    42.5240    13.9690 HW2           1 RES     
    9417 OW          36.8184    40.5740    10.3400 OW            1 RES     
    9418 HW1         36.0894    39.9000    10.4520 HW1           1 RES     
    9419 HW2         37.1194    40.8930    11.2380 HW2           1 RES     
    9420 OW           3.1564    40.4660     1.1000 OW            1 RES     
    9421 HW1          4.0394    40.5790     0.6450 HW1           1 RES     
    9422 HW2          2.5684    41.2460     0.8860 HW2           1 RES     
    9423 OW          11.5024    30.0530    25.6450 OW            1 RES     
    9424 HW1         11.1074    30.8180    25.1380 HW1           1 RES     
    9425 HW2         11.8314    30.3750    26.5330 HW2           1 RES     
    9426 OW          13.5924    15.1220    27.1030 OW            1 RES     
    9427 HW1         12.7474    15.6220    26.9200 HW1           1 RES     
    9428 HW2         13.6564    14.3360    26.4870 HW2           1 RES     
    9429 OW          44.0754    38.0710     2.0180 OW            1 RES     
    9430 HW1         43.6784    37.8180     1.1370 HW1           1 RES     
    9431 HW2         43.4514    38.6850     2.5020 HW2           1 RES     
    9432 OW          28.5324    26.0340    22.0350 OW            1 RES     
    9433 HW1         28.6554    25.0880    22.3340 HW1           1 RES     
    9434 HW2         27.5724    26.2930    22.1360 HW2           1 RES     
    9435 OW           7.3684     4.6120     1.3140 OW            1 RES     
    9436 HW1          7.2424     4.1520     0.4360 HW1           1 RES     
    9437 HW2          7.0414     5.5550     1.2470 HW2           1 RES     
    9438 OW           6.8784     1.8100    16.0860 OW            1 RES     
    9439 HW1          7.1304     2.7340    16.3720 HW1           1 RES     
    9440 HW2          7.6834     1.3410    15.7230 HW2           1 RES     
    9441 OW           7.9104    24.0450    27.2370 OW            1 RES     
    9442 HW1          7.2264    24.7720    27.2810 HW1           1 RES     
    9443 HW2          8.8254    24.4480    27.2290 HW2           1 RES     
    9444 OW          38.4364    22.7470     0.8090 OW            1 RES     
    9445 HW1         37.6074    23.1200     1.2240 HW1           1 RES     
    9446 HW2         39.2024    23.3690     0.9750 HW2           1 RES     
    9447 OW          10.1964    16.8390    24.7640 OW            1 RES     
    9448 HW1         10.7164    17.6830    24.6400 HW1           1 RES     
    9449 HW2          9.2984    17.0530    25.1490 HW2           1 RES     
    9450 OW           9.1914    27.5600    12.0660 OW            1 RES     
    9451 HW1          9.6674    28.4360    11.9900 HW1           1 RES     
    9452 HW2          8.2224    27.7210    12.2530 HW2           1 RES     
    9453 OW          18.8294    42.8530    27.2140 OW            1 RES     
    9454 HW1         19.1964    41.9510    26.9910 HW1           1 RES     
    9455 HW2         17.8334    42.8410    27.1230 HW2           1 RES     
    9456 OW          22.5684    29.7680     0.1400 OW            1 RES     
    9457 HW1         22.6624    28.7830     0.0000 HW1           1 RES     
    9458 HW2         23.3664    30.1120     0.6350 HW2           1 RES     
    9459 OW          35.6794    12.2620     6.8990 OW            1 RES     
    9460 HW1         34.8294    11.8480     6.5750 HW1           1 RES     
    9461 HW2         36.4154    11.5850     6.8640 HW2           1 RES     
    9462 OW          52.0924    22.0820     5.8160 OW            1 RES     
    9463 HW1         52.0424    22.1760     4.8230 HW1           1 RES     
    9464 HW2         52.9334    21.6000     6.0640 HW2           1 RES     
    9465 OW           7.5204    30.1050    15.3900 OW            1 RES     
    9466 HW1          7.8854    29.6960    14.5550 HW1           1 RES     
    9467 HW2          6.8204    30.7790    15.1530 HW2           1 RES     
    9468 OW          36.0424    30.0550    21.7540 OW            1 RES     
    9469 HW1         35.8514    29.0810    21.8690 HW1           1 RES     
    9470 HW2         35.5814    30.5730    22.4750 HW2           1 RES     
    9471 OW           9.8114    35.9480    13.4430 OW            1 RES     
    9472 HW1         10.3334    35.2280    13.8980 HW1           1 RES     
    9473 HW2         10.3494    36.3260    12.6890 HW2           1 RES     
    9474 OW          42.2254    19.4030    11.3210 OW            1 RES     
    9475 HW1         41.3154    19.7770    11.1440 HW1           1 RES     
    9476 HW2         42.8894    20.1500    11.3660 HW2           1 RES     
    9477 OW          27.2814    45.4910    13.9530 OW            1 RES     
    9478 HW1         26.3154    45.2520    13.8630 HW1           1 RES     
    9479 HW2         27.3714    46.4820    14.0620 HW2           1 RES     
    9480 OW           1.2904    36.2240    23.8530 OW            1 RES     
    9481 HW1          1.1314    36.7530    23.0200 HW1           1 RES     
    9482 HW2          0.4434    36.1720    24.3830 HW2           1 RES     
    9483 OW          44.8604    36.0020    17.0780 OW            1 RES     
    9484 HW1         44.2184    35.3350    17.4550 HW1           1 RES     
    9485 HW2         44.3814    36.8620    16.9010 HW2           1 RES     
    9486 OW          35.1834    46.7420    22.7300 OW            1 RES     
    9487 HW1         34.6724    45.8850    22.6780 HW1           1 RES     
    9488 HW2         36.1644    46.5490    22.6980 HW2           1 RES     
    9489 OW          11.8034    11.3220    10.9520 OW            1 RES     
    9490 HW1         11.4524    12.0550    10.3690 HW1           1 RES     
    9491 HW2         11.6424    10.4390    10.5110 HW2           1 RES     
    9492 OW          32.8644    38.8970    17.0080 OW            1 RES     
    9493 HW1         33.8514    38.8430    17.1570 HW1           1 RES     
    9494 HW2         32.5874    39.8560    16.9500 HW2           1 RES     
    9495 OW          42.1264    18.1960    19.2800 OW            1 RES     
    9496 HW1         41.3574    17.7690    19.7530 HW1           1 RES     
    9497 HW2         42.8114    17.5000    19.0600 HW2           1 RES     
    9498 OW          24.3464    35.1520     1.0410 OW            1 RES     
    9499 HW1         23.6674    34.4220     0.9630 HW1           1 RES     
    9500 HW2         25.2644    34.7550     1.0370 HW2           1 RES     
    9501 OW          45.4814    10.9060     9.2230 OW            1 RES     
    9502 HW1         45.0434    10.7710     8.3350 HW1           1 RES     
    9503 HW2         45.3174    11.8410     9.5380 HW2           1 RES     
    9504 OW           1.1224    44.5760    24.8830 OW            1 RES     
    9505 HW1          1.6374    43.7190    24.8640 HW1           1 RES     
    9506 HW2          1.1714    45.0150    23.9860 HW2           1 RES     
    9507 OW          49.9344     4.4090     7.0730 OW            1 RES     
    9508 HW1         50.6414     3.9240     6.5610 HW1           1 RES     
    9509 HW2         49.8984     4.0560     8.0090 HW2           1 RES     
    9510 OW           8.7364    41.3510    11.9300 OW            1 RES     
    9511 HW1          8.8434    40.3580    11.9610 HW1           1 RES     
    9512 HW2          8.8414    41.7280    12.8500 HW2           1 RES     
    9513 OW          14.1884    40.8510    13.3400 OW            1 RES     
    9514 HW1         14.2994    41.6390    13.9440 HW1           1 RES     
    9515 HW2         15.0884    40.5140    13.0620 HW2           1 RES     
    9516 OW          41.4224    28.0730     8.5580 OW            1 RES     
    9517 HW1         42.1984    27.4740     8.7540 HW1           1 RES     
    9518 HW2         41.3184    28.7370     9.2980 HW2           1 RES     
    9519 OW          17.1654    28.7760    17.2340 OW            1 RES     
    9520 HW1         16.4564    28.0720    17.2320 HW1           1 RES     
    9521 HW2         16.7384    29.6810    17.2300 HW2           1 RES     
    9522 OW          56.1704    35.6210     1.2780 OW            1 RES     
    9523 HW1         56.4174    34.6730     1.0810 HW1           1 RES     
    9524 HW2         57.0014    36.1680     1.3770 HW2           1 RES     
    9525 OW           3.8024    26.7140     6.5960 OW            1 RES     
    9526 HW1          3.0204    26.1100     6.7450 HW1           1 RES     
    9527 HW2          3.5424    27.6560     6.8090 HW2           1 RES     
    9528 OW          48.9434    23.2790    12.7480 OW            1 RES     
    9529 HW1         49.3684    23.7170    13.5390 HW1           1 RES     
    9530 HW2         49.4654    23.4990    11.9230 HW2           1 RES     
    9531 OW          26.1574    44.4620     1.4660 OW            1 RES     
    9532 HW1         25.8354    43.9670     0.6600 HW1           1 RES     
    9533 HW2         25.8624    45.4160     1.4120 HW2           1 RES     
    9534 OW          53.6784    18.8250     6.0620 OW            1 RES     
    9535 HW1         53.7684    17.8590     6.3030 HW1           1 RES     
    9536 HW2         52.8784    19.2110     6.5220 HW2           1 RES     
    9537 OW          26.9964    29.1750    18.4680 OW            1 RES     
    9538 HW1         27.5174    29.9840    18.7390 HW1           1 RES     
    9539 HW2         26.7104    29.2660    17.5140 HW2           1 RES     
    9540 OW          11.6064    37.3570    10.4150 OW            1 RES     
    9541 HW1         10.7644    36.8200    10.4490 HW1           1 RES     
    9542 HW2         12.3774    36.7880    10.7030 HW2           1 RES     
    9543 OW          42.7624    45.8260    10.8290 OW            1 RES     
    9544 HW1         43.5154    45.2150    11.0720 HW1           1 RES     
    9545 HW2         42.9914    46.3190     9.9890 HW2           1 RES     
    9546 OW          47.5074     3.8430    19.0270 OW            1 RES     
    9547 HW1         47.4094     2.9010    18.7090 HW1           1 RES     
    9548 HW2         46.9724     3.9710    19.8630 HW2           1 RES     
    9549 OW          50.5694    16.0000     6.1030 OW            1 RES     
    9550 HW1         51.2544    15.3020     6.3120 HW1           1 RES     
    9551 HW2         49.7174    15.7860     6.5820 HW2           1 RES     
    9552 OW          48.7464    28.2500    17.5210 OW            1 RES     
    9553 HW1         49.5524    28.6050    17.0470 HW1           1 RES     
    9554 HW2         48.2124    27.6850    16.8920 HW2           1 RES     
    9555 OW          16.8454    32.6990     0.9440 OW            1 RES     
    9556 HW1         16.0144    33.2540     0.9450 HW1           1 RES     
    9557 HW2         17.5194    33.1080     0.3290 HW2           1 RES     
    9558 OW          26.0314    18.5930    16.9410 OW            1 RES     
    9559 HW1         26.0084    19.5020    16.5260 HW1           1 RES     
    9560 HW2         26.2164    18.6770    17.9200 HW2           1 RES     
    9561 OW          46.1534    42.9330    11.1330 OW            1 RES     
    9562 HW1         45.4844    43.3440    10.5150 HW1           1 RES     
    9563 HW2         46.9334    43.5510    11.2400 HW2           1 RES     
    9564 OW           1.2974    21.1150     6.2300 OW            1 RES     
    9565 HW1          1.2234    20.3520     6.8710 HW1           1 RES     
    9566 HW2          0.8614    21.9250     6.6240 HW2           1 RES     
    9567 OW          33.2904    19.9480    16.0710 OW            1 RES     
    9568 HW1         32.9824    19.8530    15.1250 HW1           1 RES     
    9569 HW2         32.5194    19.7970    16.6900 HW2           1 RES     
    9570 OW          56.6374    25.3730     7.1430 OW            1 RES     
    9571 HW1         56.1024    26.0630     6.6570 HW1           1 RES     
    9572 HW2         56.2394    24.4690     6.9850 HW2           1 RES     
    9573 OW           9.6444     4.7140     7.9520 OW            1 RES     
    9574 HW1         10.0924     5.5730     8.1940 HW1           1 RES     
    9575 HW2         10.3334     4.0470     7.6650 HW2           1 RES     
    9576 OW           9.2954    33.2080    18.6660 OW            1 RES     
    9577 HW1         10.0154    33.7840    18.2810 HW1           1 RES     
    9578 HW2          9.7064    32.4830    19.2200 HW2           1 RES     
    9579 OW           4.8324    43.6720    23.8380 OW            1 RES     
    9580 HW1          4.2264    43.5190    24.6180 HW1           1 RES     
    9581 HW2          4.6174    43.0150    23.1150 HW2           1 RES     
    9582 OW          49.7784    20.3700     6.3240 OW            1 RES     
    9583 HW1         50.5094    20.6780     6.9310 HW1           1 RES     
    9584 HW2         49.4274    21.1480     5.8020 HW2           1 RES     
    9585 OW          41.9754    22.2650     9.3860 OW            1 RES     
    9586 HW1         41.1864    22.8460     9.5800 HW1           1 RES     
    9587 HW2         42.7994    22.8290     9.3310 HW2           1 RES     
    9588 OW          28.2594    22.0620    19.6670 OW            1 RES     
    9589 HW1         29.2294    21.8300    19.5940 HW1           1 RES     
    9590 HW2         28.1224    22.6870    20.4360 HW2           1 RES     
    9591 OW          32.2404    13.0700    16.7290 OW            1 RES     
    9592 HW1         32.7704    13.9050    16.5870 HW1           1 RES     
    9593 HW2         31.3034    13.3090    16.9870 HW2           1 RES     
    9594 OW          13.0704    28.4040    17.1820 OW            1 RES     
    9595 HW1         12.5064    29.1820    16.9090 HW1           1 RES     
    9596 HW2         13.6954    28.6850    17.9110 HW2           1 RES     
    9597 OW          29.3054     2.3350    15.7000 OW            1 RES     
    9598 HW1         30.2064     2.6640    15.4180 HW1           1 RES     
    9599 HW2         29.3794     1.8800    16.5880 HW2           1 RES     
    9600 OW          43.8664    20.5360     7.4750 OW            1 RES     
    9601 HW1         44.0504    21.4720     7.1770 HW1           1 RES     
    9602 HW2         44.2944    19.8930     6.8390 HW2           1 RES     
    9603 OW          25.5974    28.7270     2.0440 OW            1 RES     
    9604 HW1         25.8704    29.6750     2.2100 HW1           1 RES     
    9605 HW2         24.9974    28.6880     1.2450 HW2           1 RES     
    9606 OW          23.2054    48.3670    13.7930 OW            1 RES     
    9607 HW1         23.6784    49.1250    13.3460 HW1           1 RES     
    9608 HW2         22.2894    48.6590    14.0670 HW2           1 RES     
    9609 OW          18.8964     6.5660     0.6640 OW            1 RES     
    9610 HW1         19.1764     5.6120     0.5650 HW1           1 RES     
    9611 HW2         18.1744     6.7730     0.0030 HW2           1 RES     
    9612 OW           7.2634    42.1800    21.5080 OW            1 RES     
    9613 HW1          7.9564    41.4960    21.7340 HW1           1 RES     
    9614 HW2          6.7134    41.8560    20.7370 HW2           1 RES     
    9615 OW          30.8474    34.7770     1.3810 OW            1 RES     
    9616 HW1         30.2634    35.5420     1.6510 HW1           1 RES     
    9617 HW2         31.6624    35.1260     0.9190 HW2           1 RES     
    9618 OW           3.3254    45.5730    23.5160 OW            1 RES     
    9619 HW1          3.5034    45.0270    22.6980 HW1           1 RES     
    9620 HW2          3.1624    46.5240    23.2540 HW2           1 RES     
    9621 OW          44.0204     4.5900    17.6480 OW            1 RES     
    9622 HW1         43.3864     5.3210    17.8970 HW1           1 RES     
    9623 HW2         43.7624     3.7480    18.1220 HW2           1 RES     
    9624 OW          37.5504    30.5290    13.1310 OW            1 RES     
    9625 HW1         38.4494    30.4840    12.6970 HW1           1 RES     
    9626 HW2         37.5094    31.3260    13.7330 HW2           1 RES     
    9627 OW          30.7264     4.8230    22.9650 OW            1 RES     
    9628 HW1         31.2674     4.4580    23.7220 HW1           1 RES     
    9629 HW2         29.8934     4.2800    22.8580 HW2           1 RES     
    9630 OW          12.8654     5.0970    17.1880 OW            1 RES     
    9631 HW1         12.8554     4.1090    17.3370 HW1           1 RES     
    9632 HW2         11.9284     5.4470    17.2090 HW2           1 RES     
    9633 OW          46.4254    15.6370     2.7570 OW            1 RES     
    9634 HW1         47.1634    16.2950     2.6120 HW1           1 RES     
    9635 HW2         45.5544    16.1230     2.8290 HW2           1 RES     
    9636 OW          47.8464    24.6310     4.4390 OW            1 RES     
    9637 HW1         47.3864    24.3350     5.2760 HW1           1 RES     
    9638 HW2         47.8494    23.8810     3.7770 HW2           1 RES     
    9639 OW          46.4964    31.0490    23.1140 OW            1 RES     
    9640 HW1         46.4994    30.0630    23.2750 HW1           1 RES     
    9641 HW2         47.4044    31.3410    22.8130 HW2           1 RES     
    9642 OW          18.5264    23.0770     0.7790 OW            1 RES     
    9643 HW1         19.3474    23.6470     0.7770 HW1           1 RES     
    9644 HW2         18.7904    22.1130     0.7790 HW2           1 RES     
    9645 OW           1.0184     4.7950     4.2840 OW            1 RES     
    9646 HW1          1.0764     4.2680     5.1310 HW1           1 RES     
    9647 HW2          1.3924     5.7100     4.4340 HW2           1 RES     
    9648 OW           0.5884    34.8690    16.6600 OW            1 RES     
    9649 HW1          0.4704    34.0230    17.1800 HW1           1 RES     
    9650 HW2          1.3284    34.7530    15.9970 HW2           1 RES     
    9651 OW          43.9164     3.7790     0.7430 OW            1 RES     
    9652 HW1         44.5104     3.4720     0.0010 HW1           1 RES     
    9653 HW2         43.1224     3.1750     0.8080 HW2           1 RES     
    9654 OW          18.9114    26.4600    21.8800 OW            1 RES     
    9655 HW1         19.2744    25.6210    21.4760 HW1           1 RES     
    9656 HW2         19.6644    27.0890    22.0750 HW2           1 RES     
    9657 OW           0.6634    41.9350     1.7440 OW            1 RES     
    9658 HW1          0.3144    42.0260     2.6760 HW1           1 RES     
    9659 HW2          0.0044    42.3250     1.1000 HW2           1 RES     
    9660 OW          36.2964    31.1680     4.9610 OW            1 RES     
    9661 HW1         36.0844    32.0760     5.3220 HW1           1 RES     
    9662 HW2         35.9984    30.4710     5.6130 HW2           1 RES     
    9663 OW          40.6624    40.7780     5.0100 OW            1 RES     
    9664 HW1         39.8364    40.3590     5.3840 HW1           1 RES     
    9665 HW2         41.4674    40.3750     5.4470 HW2           1 RES     
    9666 OW           3.6874    10.2960    13.4930 OW            1 RES     
    9667 HW1          3.2654     9.3910    13.4520 HW1           1 RES     
    9668 HW2          4.6774    10.1980    13.5960 HW2           1 RES     
    9669 OW          13.8894    28.4530    25.4340 OW            1 RES     
    9670 HW1         12.9004    28.3100    25.4250 HW1           1 RES     
    9671 HW2         14.3544    27.5680    25.4080 HW2           1 RES     
    9672 OW           1.0614    30.0670     7.5860 OW            1 RES     
    9673 HW1          0.7004    29.1370     7.5280 HW1           1 RES     
    9674 HW2          2.0564    30.0460     7.4850 HW2           1 RES     
    9675 OW          29.7334    48.5930    15.2280 OW            1 RES     
    9676 HW1         29.6764    48.2010    16.1460 HW1           1 RES     
    9677 HW2         28.9174    49.1430    15.0480 HW2           1 RES     
    9678 OW          20.3564    40.9380    19.1970 OW            1 RES     
    9679 HW1         19.6274    40.2690    19.0630 HW1           1 RES     
    9680 HW2         20.0084    41.7100    19.7280 HW2           1 RES     
    9681 OW          52.0464    35.7730    25.9950 OW            1 RES     
    9682 HW1         51.2734    35.2650    26.3730 HW1           1 RES     
    9683 HW2         52.8094    35.1470    25.8300 HW2           1 RES     
    9684 OW          42.5924    38.8340     9.6490 OW            1 RES     
    9685 HW1         43.5534    38.5630     9.6100 HW1           1 RES     
    9686 HW2         42.5244    39.8310     9.6170 HW2           1 RES     
    9687 OW          14.4894    32.7510    23.2370 OW            1 RES     
    9688 HW1         15.4164    32.9160    22.9010 HW1           1 RES     
    9689 HW2         13.8334    33.2380    22.6610 HW2           1 RES     
    9690 OW          37.0174    42.8950    26.8940 OW            1 RES     
    9691 HW1         36.2814    42.3300    27.2650 HW1           1 RES     
    9692 HW2         37.7874    42.3110    26.6360 HW2           1 RES     
    9693 OW          53.5604    32.7040    27.1520 OW            1 RES     
    9694 HW1         54.2724    33.3930    27.2810 HW1           1 RES     
    9695 HW2         52.8404    33.0740    26.5660 HW2           1 RES     
    9696 OW          28.8784     4.1170     3.4250 OW            1 RES     
    9697 HW1         29.4874     4.7550     3.8950 HW1           1 RES     
    9698 HW2         29.3994     3.5900     2.7540 HW2           1 RES     
    9699 OW          51.7504    34.4950    11.2120 OW            1 RES     
    9700 HW1         50.7784    34.7270    11.2130 HW1           1 RES     
    9701 HW2         52.2944    35.3340    11.1990 HW2           1 RES     
    9702 OW           9.4864    41.3790     8.8090 OW            1 RES     
    9703 HW1          9.3884    40.4840     8.3730 HW1           1 RES     
    9704 HW2          9.3604    41.2850     9.7970 HW2           1 RES     
    9705 OW          53.1654     9.8020    16.3580 OW            1 RES     
    9706 HW1         53.4584     8.8530    16.2440 HW1           1 RES     
    9707 HW2         53.5634    10.1750    17.1970 HW2           1 RES     
    9708 OW          25.8104    26.0960    14.3370 OW            1 RES     
    9709 HW1         26.6034    25.4980    14.4490 HW1           1 RES     
    9710 HW2         24.9724    25.5520    14.3920 HW2           1 RES     
    9711 OW          23.4314    33.3860     8.1700 OW            1 RES     
    9712 HW1         22.6354    33.2700     8.7640 HW1           1 RES     
    9713 HW2         23.5004    34.3420     7.8870 HW2           1 RES     
    9714 OW           0.8544    20.8260    16.1030 OW            1 RES     
    9715 HW1          0.7134    21.1360    17.0430 HW1           1 RES     
    9716 HW2          0.0094    20.4170    15.7560 HW2           1 RES     
    9717 OW          43.6874    32.1100     7.2250 OW            1 RES     
    9718 HW1         44.0684    31.8070     6.3530 HW1           1 RES     
    9719 HW2         44.2724    32.8210     7.6160 HW2           1 RES     
    9720 OW          27.5984     1.3680     1.4020 OW            1 RES     
    9721 HW1         28.5314     1.2190     1.0740 HW1           1 RES     
    9722 HW2         27.5254     2.2860     1.7930 HW2           1 RES     
    9723 OW          41.7234    34.6300    14.9770 OW            1 RES     
    9724 HW1         40.9434    35.2330    15.1390 HW1           1 RES     
    9725 HW2         41.5604    33.7480    15.4200 HW2           1 RES     
    9726 OW          18.6714    37.4300    20.3960 OW            1 RES     
    9727 HW1         19.1094    38.3270    20.4470 HW1           1 RES     
    9728 HW2         17.6774    37.5450    20.3700 HW2           1 RES     
    9729 OW          38.9474    15.6150    20.1820 OW            1 RES     
    9730 HW1         39.7984    16.1290    20.2810 HW1           1 RES     
    9731 HW2         38.1904    16.1460    20.5640 HW2           1 RES     
    9732 OW           2.5244    39.3770    14.3410 OW            1 RES     
    9733 HW1          1.5454    39.5120    14.1960 HW1           1 RES     
    9734 HW2          2.9624    40.2600    14.5090 HW2           1 RES     
    9735 OW          31.8314    28.3890    25.5450 OW            1 RES     
    9736 HW1         32.7974    28.3670    25.2920 HW1           1 RES     
    9737 HW2         31.4064    27.5130    25.3140 HW2           1 RES     
    9738 OW           3.7394    25.6100     9.5440 OW            1 RES     
    9739 HW1          4.4894    25.4790    10.1910 HW1           1 RES     
    9740 HW2          4.1104    25.7490     8.6260 HW2           1 RES     
    9741 OW          50.0664    48.5810    13.1350 OW            1 RES     
    9742 HW1         50.8924    48.2040    13.5510 HW1           1 RES     
    9743 HW2         49.6064    47.8700    12.6010 HW2           1 RES     
    9744 OW          44.7054    41.9930    21.3490 OW            1 RES     
    9745 HW1         43.7164    41.9020    21.4620 HW1           1 RES     
    9746 HW2         44.9184    42.9020    20.9890 HW2           1 RES     
    9747 OW          19.1954    43.1890    17.9890 OW            1 RES     
    9748 HW1         18.6744    43.9110    18.4420 HW1           1 RES     
    9749 HW2         19.0684    43.2560    16.9990 HW2           1 RES     
    9750 OW          25.0644    14.6030    12.5740 OW            1 RES     
    9751 HW1         25.8474    15.0070    13.0460 HW1           1 RES     
    9752 HW2         24.2344    14.7610    13.1100 HW2           1 RES     
    9753 OW          33.4744    42.9320     3.4010 OW            1 RES     
    9754 HW1         34.0304    42.9710     4.2300 HW1           1 RES     
    9755 HW2         33.5144    42.0100     3.0150 HW2           1 RES     
    9756 OW          40.6014    13.8040    16.6500 OW            1 RES     
    9757 HW1         41.5874    13.6660    16.5700 HW1           1 RES     
    9758 HW2         40.1474    13.4630    15.8270 HW2           1 RES     
    9759 OW          52.9434     0.8960    15.0420 OW            1 RES     
    9760 HW1         52.1434     1.3060    15.4770 HW1           1 RES     
    9761 HW2         53.6764     1.5740    14.9830 HW2           1 RES     
    9762 OW           2.5764    12.5960     9.8630 OW            1 RES     
    9763 HW1          2.6474    13.5320     9.5200 HW1           1 RES     
    9764 HW2          3.4934    12.2190     9.9950 HW2           1 RES     
    9765 OW          38.9604    20.7250     3.7630 OW            1 RES     
    9766 HW1         39.8324    20.7030     3.2760 HW1           1 RES     
    9767 HW2         38.4944    19.8470     3.6530 HW2           1 RES     
    9768 OW          32.1254    24.4390    14.5560 OW            1 RES     
    9769 HW1         31.6854    23.5650    14.3540 HW1           1 RES     
    9770 HW2         32.0794    24.6170    15.5390 HW2           1 RES     
    9771 OW          24.0624     2.6220     0.5890 OW            1 RES     
    9772 HW1         23.8754     2.2640     1.5040 HW1           1 RES     
    9773 HW2         24.9824     2.3500     0.3050 HW2           1 RES     
    9774 OW          13.7534    37.3950     6.0870 OW            1 RES     
    9775 HW1         13.9834    38.3140     6.4070 HW1           1 RES     
    9776 HW2         13.4794    36.8290     6.8660 HW2           1 RES     
    9777 OW          38.6424    15.2620     5.7170 OW            1 RES     
    9778 HW1         37.8664    14.9590     6.2690 HW1           1 RES     
    9779 HW2         38.5784    14.8620     4.8020 HW2           1 RES     
    9780 OW           3.3014     0.9510    19.6520 OW            1 RES     
    9781 HW1          4.2254     1.0880    20.0080 HW1           1 RES     
    9782 HW2          3.0234     0.0020    19.8020 HW2           1 RES     
    9783 OW          52.8534    41.3650     4.7810 OW            1 RES     
    9784 HW1         52.9244    40.8970     5.6610 HW1           1 RES     
    9785 HW2         51.9404    41.2230     4.4000 HW2           1 RES     
    9786 OW          49.4734    43.5610    10.2770 OW            1 RES     
    9787 HW1         49.6814    43.7370    11.2380 HW1           1 RES     
    9788 HW2         49.2574    42.5920    10.1540 HW2           1 RES     
    9789 OW          39.4514    38.0180    23.9900 OW            1 RES     
    9790 HW1         39.7484    37.6590    24.8750 HW1           1 RES     
    9791 HW2         38.7904    37.3890    23.5800 HW2           1 RES     
    9792 OW          49.1644     3.2340     4.5060 OW            1 RES     
    9793 HW1         48.8634     4.1510     4.7640 HW1           1 RES     
    9794 HW2         49.1084     2.6280     5.3000 HW2           1 RES     
    9795 OW          24.4474    33.8730    23.8360 OW            1 RES     
    9796 HW1         24.9464    33.0620    24.1390 HW1           1 RES     
    9797 HW2         24.8224    34.1900    22.9650 HW2           1 RES     
    9798 OW          13.7214    24.5620    21.5670 OW            1 RES     
    9799 HW1         14.6894    24.3210    21.6230 HW1           1 RES     
    9800 HW2         13.1814    23.8960    22.0810 HW2           1 RES     
    9801 OW          29.8184    22.0790    13.8430 OW            1 RES     
    9802 HW1         30.6234    21.5320    14.0700 HW1           1 RES     
    9803 HW2         30.0334    22.6880    13.0800 HW2           1 RES     
    9804 OW          12.8184    22.5260    26.5160 OW            1 RES     
    9805 HW1         12.0834    22.6780    25.8570 HW1           1 RES     
    9806 HW2         12.6574    21.6690    27.0050 HW2           1 RES     
    9807 OW          41.1694    31.7490    22.0470 OW            1 RES     
    9808 HW1         40.9634    31.4610    21.1130 HW1           1 RES     
    9809 HW2         40.3764    31.5780    22.6320 HW2           1 RES     
    9810 OW          35.2444    14.7360     1.7080 OW            1 RES     
    9811 HW1         34.5014    14.1350     1.4140 HW1           1 RES     
    9812 HW2         35.7624    15.0410     0.9090 HW2           1 RES     
    9813 OW          26.5834    34.5250    15.5460 OW            1 RES     
    9814 HW1         27.5824    34.5240    15.5610 HW1           1 RES     
    9815 HW2         26.2504    35.4680    15.5680 HW2           1 RES     
    9816 OW          36.4724    41.5960    20.3390 OW            1 RES     
    9817 HW1         36.0334    42.3840    19.9090 HW1           1 RES     
    9818 HW2         35.9034    41.2670    21.0940 HW2           1 RES     
    9819 OW          11.6464    13.8080     3.2830 OW            1 RES     
    9820 HW1         11.1474    14.6740     3.2760 HW1           1 RES     
    9821 HW2         11.0044    13.0530     3.4180 HW2           1 RES     
    9822 OW          26.7044     9.3120    18.1150 OW            1 RES     
    9823 HW1         25.7944     8.9020    18.1660 HW1           1 RES     
    9824 HW2         27.3974     8.5940    18.1760 HW2           1 RES     
    9825 OW          57.1744    42.4950     2.7500 OW            1 RES     
    9826 HW1         57.2364    41.4990     2.8070 HW1           1 RES     
    9827 HW2         56.5804    42.7510     1.9870 HW2           1 RES     
    9828 OW          25.9814    14.4260    17.9940 OW            1 RES     
    9829 HW1         26.5794    15.0140    18.5390 HW1           1 RES     
    9830 HW2         25.7524    14.8870    17.1370 HW2           1 RES     
    9831 OW          50.3794     1.1440     3.5090 OW            1 RES     
    9832 HW1         51.2434     1.4290     3.0950 HW1           1 RES     
    9833 HW2         50.5124     0.9950     4.4890 HW2           1 RES     
    9834 OW          19.8894    16.7110     4.7140 OW            1 RES     
    9835 HW1         19.1814    16.4060     4.0770 HW1           1 RES     
    9836 HW2         19.4624    17.0410     5.5550 HW2           1 RES     
    9837 OW          21.6374    40.1520    25.1750 OW            1 RES     
    9838 HW1         21.5884    41.0810    24.8080 HW1           1 RES     
    9839 HW2         21.4394    39.4950    24.4480 HW2           1 RES     
    9840 OW          55.4774    28.7600     9.1060 OW            1 RES     
    9841 HW1         55.5874    29.7420     9.2510 HW1           1 RES     
    9842 HW2         54.6584    28.5930     8.5560 HW2           1 RES     
    9843 OW           0.1654     5.2940     8.8370 OW            1 RES     
    9844 HW1          0.0024     4.3080     8.8460 HW1           1 RES     
    9845 HW2          0.0014     5.6690     9.7490 HW2           1 RES     
    9846 OW           7.0814    42.9260     4.2010 OW            1 RES     
    9847 HW1          6.2204    43.0610     3.7120 HW1           1 RES     
    9848 HW2          7.4134    41.9960     4.0420 HW2           1 RES     
    9849 OW           5.5654    33.8660    15.3720 OW            1 RES     
    9850 HW1          5.3414    33.5820    16.3040 HW1           1 RES     
    9851 HW2          6.2974    33.2860    15.0140 HW2           1 RES     
    9852 OW          53.4194    30.5900    25.0180 OW            1 RES     
    9853 HW1         53.6634    30.1000    25.8540 HW1           1 RES     
    9854 HW2         54.2374    30.7270    24.4600 HW2           1 RES     
    9855 OW          51.9204    38.6550    17.1570 OW            1 RES     
    9856 HW1         52.9184    38.6700    17.1130 HW1           1 RES     
    9857 HW2         51.5744    39.5910    17.2240 HW2           1 RES     
    9858 OW           6.0324    15.5350     5.3530 OW            1 RES     
    9859 HW1          5.6694    15.2650     6.2440 HW1           1 RES     
    9860 HW2          6.4974    14.7550     4.9320 HW2           1 RES     
    9861 OW          30.5364     9.2120    17.8360 OW            1 RES     
    9862 HW1         31.2604     8.5690    18.0830 HW1           1 RES     
    9863 HW2         30.9344    10.1130    17.6610 HW2           1 RES     
    9864 OW           5.8434    39.9520    19.2510 OW            1 RES     
    9865 HW1          6.7364    39.5710    19.4870 HW1           1 RES     
    9866 HW2          5.2934    39.2540    18.7920 HW2           1 RES     
    9867 OW          15.6704    47.7520     3.7060 OW            1 RES     
    9868 HW1         14.8214    47.9650     3.2250 HW1           1 RES     
    9869 HW2         15.7674    48.3570     4.4970 HW2           1 RES     
    9870 OW          52.9434     2.7540    12.3480 OW            1 RES     
    9871 HW1         51.9524     2.7910    12.2230 HW1           1 RES     
    9872 HW2         53.2674     1.8230    12.1790 HW2           1 RES     
    9873 OW          32.0624     9.0250    20.5270 OW            1 RES     
    9874 HW1         32.2314     8.0450    20.6260 HW1           1 RES     
    9875 HW2         32.8214     9.5360    20.9310 HW2           1 RES     
    9876 OW          55.0614    14.9400     7.5520 OW            1 RES     
    9877 HW1         54.8474    14.4600     8.4020 HW1           1 RES     
    9878 HW2         54.2464    14.9760     6.9740 HW2           1 RES     
    9879 OW          13.5984    33.6280     3.3630 OW            1 RES     
    9880 HW1         13.9984    34.3520     3.9240 HW1           1 RES     
    9881 HW2         13.2514    34.0200     2.5110 HW2           1 RES     
    9882 OW          40.5984    23.5830    21.0980 OW            1 RES     
    9883 HW1         40.6294    23.9440    22.0290 HW1           1 RES     
    9884 HW2         41.0634    22.6980    21.0670 HW2           1 RES     
    9885 OW           9.8494    14.9920    26.9430 OW            1 RES     
    9886 HW1         10.7214    14.5160    26.8350 HW1           1 RES     
    9887 HW2         10.0064    15.9800    26.9480 HW2           1 RES     
    9888 OW          34.0024    14.4510    21.0570 OW            1 RES     
    9889 HW1         33.7474    14.2460    22.0010 HW1           1 RES     
    9890 HW2         33.6634    15.3590    20.8090 HW2           1 RES     
    9891 OW           4.7654     3.7000     3.9720 OW            1 RES     
    9892 HW1          4.6224     4.6740     3.8010 HW1           1 RES     
    9893 HW2          5.6154     3.4060     3.5350 HW2           1 RES     
    9894 OW           6.0344    39.0610    26.8720 OW            1 RES     
    9895 HW1          5.9504    38.9430    25.8830 HW1           1 RES     
    9896 HW2          5.1284    39.2020    27.2700 HW2           1 RES     
    9897 OW          51.4914    30.8850    14.1900 OW            1 RES     
    9898 HW1         52.3984    31.1980    13.9110 HW1           1 RES     
    9899 HW2         50.9994    31.6380    14.6290 HW2           1 RES     
    9900 OW          32.1664    21.9000     7.8910 OW            1 RES     
    9901 HW1         32.7084    21.0840     8.0850 HW1           1 RES     
    9902 HW2         32.7224    22.7160     8.0500 HW2           1 RES     
    9903 OW          28.5854    38.1030     6.4110 OW            1 RES     
    9904 HW1         28.7334    39.0540     6.6770 HW1           1 RES     
    9905 HW2         29.3184    37.5330     6.7820 HW2           1 RES     
    9906 OW          52.0924     6.2730     5.5030 OW            1 RES     
    9907 HW1         52.2544     7.2340     5.7230 HW1           1 RES     
    9908 HW2         52.7084     5.6980     6.0430 HW2           1 RES     
    9909 OW           3.7974     7.0790    20.6360 OW            1 RES     
    9910 HW1          3.9214     7.4430    21.5580 HW1           1 RES     
    9911 HW2          4.6914     6.9220    20.2160 HW2           1 RES     
    9912 OW           5.1974     2.5320    14.0510 OW            1 RES     
    9913 HW1          4.6754     2.3050    13.2310 HW1           1 RES     
    9914 HW2          5.1324     1.7800    14.7080 HW2           1 RES     
    9915 OW          16.3754    13.3820    25.6630 OW            1 RES     
    9916 HW1         15.4204    13.1480    25.8420 HW1           1 RES     
    9917 HW2         16.4654    13.7240    24.7270 HW2           1 RES     
    9918 OW          18.5904    10.8350    20.8740 OW            1 RES     
    9919 HW1         18.9344    11.7670    20.7700 HW1           1 RES     
    9920 HW2         19.2414    10.2970    21.4110 HW2           1 RES     
    9921 OW          43.5604    14.6110     9.5100 OW            1 RES     
    9922 HW1         44.0404    13.7340     9.4980 HW1           1 RES     
    9923 HW2         43.4784    14.9590     8.5750 HW2           1 RES     
    9924 OW          12.8464    32.2400    11.7910 OW            1 RES     
    9925 HW1         13.2324    32.8260    12.5020 HW1           1 RES     
    9926 HW2         13.5604    31.6380    11.4320 HW2           1 RES     
    9927 OW          46.2054     8.6720    14.5240 OW            1 RES     
    9928 HW1         46.6314     8.3230    13.6900 HW1           1 RES     
    9929 HW2         46.6304     8.2420    15.3210 HW2           1 RES     
    9930 OW          50.3894    23.1320     0.6890 OW            1 RES     
    9931 HW1         50.9274    22.3280     0.4390 HW1           1 RES     
    9932 HW2         51.0034    23.8660     0.9820 HW2           1 RES     
    9933 OW           6.1464     3.7910    10.9010 OW            1 RES     
    9934 HW1          5.3274     4.1720    11.3290 HW1           1 RES     
    9935 HW2          6.3824     2.9250    11.3420 HW2           1 RES     
    9936 OW          56.3354    22.2390     4.5230 OW            1 RES     
    9937 HW1         56.2684    22.3910     3.5370 HW1           1 RES     
    9938 HW2         55.7914    21.4390     4.7750 HW2           1 RES     
    9939 OW          41.1454     5.9740     0.4600 OW            1 RES     
    9940 HW1         41.4364     5.0610     0.1750 HW1           1 RES     
    9941 HW2         41.0944     6.0120     1.4580 HW2           1 RES     
    9942 OW          30.5044    20.7120     9.6300 OW            1 RES     
    9943 HW1         30.9084    20.0810    10.2910 HW1           1 RES     
    9944 HW2         30.0564    20.1920     8.9030 HW2           1 RES     
    9945 OW          46.8734    31.9150    19.3140 OW            1 RES     
    9946 HW1         46.3724    32.7800    19.3230 HW1           1 RES     
    9947 HW2         47.8524    32.0950    19.4090 HW2           1 RES     
    9948 OW          50.1194    35.6730     8.8340 OW            1 RES     
    9949 HW1         49.4494    34.9480     8.9930 HW1           1 RES     
    9950 HW2         51.0414    35.2870     8.8590 HW2           1 RES     
    9951 OW          44.8904    16.6040    13.5580 OW            1 RES     
    9952 HW1         45.3994    15.8020    13.8680 HW1           1 RES     
    9953 HW2         44.4794    17.0640    14.3460 HW2           1 RES     
    9954 OW          33.1234    15.6640    10.3480 OW            1 RES     
    9955 HW1         32.7464    15.5990     9.4250 HW1           1 RES     
    9956 HW2         33.4074    16.6070    10.5260 HW2           1 RES     
    9957 OW          41.1434     7.5050    17.0730 OW            1 RES     
    9958 HW1         40.6964     8.1300    17.7120 HW1           1 RES     
    9959 HW2         41.4334     8.0100    16.2590 HW2           1 RES     
    9960 OW          29.9124    15.2000     3.0660 OW            1 RES     
    9961 HW1         30.8814    15.0970     2.8430 HW1           1 RES     
    9962 HW2         29.6324    16.1480     2.9110 HW2           1 RES     
    9963 OW          41.2214    24.0810    15.1450 OW            1 RES     
    9964 HW1         41.1904    23.4960    15.9540 HW1           1 RES     
    9965 HW2         40.5824    24.8420    15.2570 HW2           1 RES     
    9966 OW          41.1834    34.1530     0.0270 OW            1 RES     
    9967 HW1         41.8364    34.7950     0.4280 HW1           1 RES     
    9968 HW2         40.4084    34.0330     0.6480 HW2           1 RES     
    9969 OW          33.2394    35.1530     4.3070 OW            1 RES     
    9970 HW1         32.9744    36.1110     4.2040 HW1           1 RES     
    9971 HW2         32.4694    34.6320     4.6770 HW2           1 RES     
    9972 OW          55.0984    12.6140     5.9410 OW            1 RES     
    9973 HW1         54.7074    11.9010     6.5210 HW1           1 RES     
    9974 HW2         54.4814    12.7980     5.1760 HW2           1 RES     
    9975 OW          16.9704    38.6300    23.3200 OW            1 RES     
    9976 HW1         16.0174    38.3530    23.2010 HW1           1 RES     
    9977 HW2         17.5314    38.2070    22.6080 HW2           1 RES     
    9978 OW          51.7424    15.4510     3.4810 OW            1 RES     
    9979 HW1         50.7804    15.3520     3.2270 HW1           1 RES     
    9980 HW2         52.2114    14.5760     3.3590 HW2           1 RES     
    9981 OW          39.0434     9.1910     0.7860 OW            1 RES     
    9982 HW1         38.7294     9.4080     1.7090 HW1           1 RES     
    9983 HW2         38.4294     8.5180     0.3730 HW2           1 RES     
    9984 OW          19.6984    29.2710     1.7610 OW            1 RES     
    9985 HW1         20.4424    29.2950     2.4290 HW1           1 RES     
    9986 HW2         18.9524    29.8610     2.0710 HW2           1 RES     
    9987 OW          32.3764    30.6810    22.2190 OW            1 RES     
    9988 HW1         32.9014    29.9320    21.8160 HW1           1 RES     
    9989 HW2         32.4664    30.6540    23.2150 HW2           1 RES     
    9990 OW          28.8924     9.7700    14.3390 OW            1 RES     
    9991 HW1         27.8934     9.7650    14.3090 HW1           1 RES     
    9992 HW2         29.2204    10.7140    14.3800 HW2           1 RES     
    9993 OW          41.6594    11.3590    13.3570 OW            1 RES     
    9994 HW1         41.0044    10.6070    13.2930 HW1           1 RES     
    9995 HW2         41.1654    12.2250    13.4410 HW2           1 RES     
    9996 OW          50.7204    19.5650     9.0840 OW            1 RES     
    9997 HW1         51.6374    19.3080     8.7810 HW1           1 RES     
    9998 HW2         50.1164    18.7690     9.0360 HW2           1 RES     
    9999 OW          17.1424    17.7710     6.2260 OW            1 RES     
   10000 HW1         17.1344    16.9950     5.5960 HW1           1 RES     
   10001 HW2         17.8264    17.6160     6.9380 HW2           1 RES     
   10002 OW          42.4084    14.1730    26.7370 OW            1 RES     
   10003 HW1         42.0834    14.8140    26.0430 HW1           1 RES     
   10004 HW2         41.9744    13.2830    26.5990 HW2           1 RES     
   10005 OW          45.9194    25.7560    17.0510 OW            1 RES     
   10006 HW1         45.3284    26.0720    16.3100 HW1           1 RES     
   10007 HW2         46.2084    26.5380    17.6040 HW2           1 RES     
   10008 OW          41.4264    25.0140    13.0430 OW            1 RES     
   10009 HW1         40.4864    25.2960    12.8550 HW1           1 RES     
   10010 HW2         42.0554    25.7370    12.7550 HW2           1 RES     
   10011 OW           2.6034     9.1100    17.6760 OW            1 RES     
   10012 HW1          2.8274    10.0730    17.5310 HW1           1 RES     
   10013 HW2          1.6104     8.9990    17.7080 HW2           1 RES     
   10014 OW          18.0544     2.4090     0.8500 OW            1 RES     
   10015 HW1         18.2624     3.3770     0.7170 HW1           1 RES     
   10016 HW2         17.2584     2.3170     1.4490 HW2           1 RES     
   10017 OW          53.8014    21.4650    26.4260 OW            1 RES     
   10018 HW1         54.2784    21.9780    27.1380 HW1           1 RES     
   10019 HW2         54.3204    20.6400    26.2030 HW2           1 RES     
   10020 OW          49.2554    15.7350    21.8740 OW            1 RES     
   10021 HW1         48.9924    16.6610    21.6040 HW1           1 RES     
   10022 HW2         49.1204    15.6240    22.8590 HW2           1 RES     
   10023 OW          32.5224     3.2560    25.7800 OW            1 RES     
   10024 HW1         32.9484     3.2200    26.6840 HW1           1 RES     
   10025 HW2         32.8434     4.0690    25.2930 HW2           1 RES     
   10026 OW           3.2084     3.5420    11.2520 OW            1 RES     
   10027 HW1          2.2224     3.6430    11.1220 HW1           1 RES     
   10028 HW2          3.4244     2.5830    11.4390 HW2           1 RES     
   10029 OW          25.5034     7.1440     7.1800 OW            1 RES     
   10030 HW1         25.4374     7.7000     8.0080 HW1           1 RES     
   10031 HW2         24.6914     6.5660     7.1000 HW2           1 RES     
   10032 OW           5.9954    46.0970    23.6420 OW            1 RES     
   10033 HW1          6.4424    46.6980    22.9810 HW1           1 RES     
   10034 HW2          5.9084    46.5720    24.5190 HW2           1 RES     
   10035 OW          13.8694    45.8230     8.2210 OW            1 RES     
   10036 HW1         14.7854    46.0510     7.8910 HW1           1 RES     
   10037 HW2         13.4664    45.1230     7.6300 HW2           1 RES     
   10038 OW           9.1684     5.4520    26.2020 OW            1 RES     
   10039 HW1          9.5194     6.3860    26.1490 HW1           1 RES     
   10040 HW2          9.4964     5.0190    27.0420 HW2           1 RES     
   10041 OW          54.5004    46.3760    25.0590 OW            1 RES     
   10042 HW1         54.0144    47.2490    25.0520 HW1           1 RES     
   10043 HW2         55.4864    46.5430    25.0750 HW2           1 RES     
   10044 OW          18.3134     4.9830    19.1470 OW            1 RES     
   10045 HW1         19.2764     5.0050    19.4120 HW1           1 RES     
   10046 HW2         18.0404     4.0390    18.9590 HW2           1 RES     
   10047 OW          56.4284    25.0290    17.8040 OW            1 RES     
   10048 HW1         55.9534    24.9630    16.9260 HW1           1 RES     
   10049 HW2         55.8014    25.3890    18.4950 HW2           1 RES     
   10050 OW          27.3184    14.2990    11.5710 OW            1 RES     
   10051 HW1         27.0104    15.1270    11.1040 HW1           1 RES     
   10052 HW2         28.0424    14.5320    12.2210 HW2           1 RES     
   10053 OW          38.0144     2.0390    22.5220 OW            1 RES     
   10054 HW1         37.1224     2.2880    22.8970 HW1           1 RES     
   10055 HW2         38.7284     2.5690    22.9790 HW2           1 RES     
   10056 OW          11.4054    49.1690     6.7900 OW            1 RES     
   10057 HW1         12.1434    48.6900     7.2640 HW1           1 RES     
   10058 HW2         10.5304    48.7370     7.0120 HW2           1 RES     
   10059 OW          37.8424    42.5520    21.7710 OW            1 RES     
   10060 HW1         38.2034    42.3210    22.6740 HW1           1 RES     
   10061 HW2         38.4604    42.2060    21.0650 HW2           1 RES     
   10062 OW           2.6094    12.8980    15.2520 OW            1 RES     
   10063 HW1          3.4544    13.4220    15.3580 HW1           1 RES     
   10064 HW2          2.8124    12.0220    14.8150 HW2           1 RES     
   10065 OW           9.2684    29.9570     1.9640 OW            1 RES     
   10066 HW1          9.7254    29.2610     2.5170 HW1           1 RES     
   10067 HW2          9.6004    29.9060     1.0220 HW2           1 RES     
   10068 OW           7.1294     6.2100     9.1400 OW            1 RES     
   10069 HW1          7.0774     5.4160     9.7440 HW1           1 RES     
   10070 HW2          6.2104     6.4550     8.8300 HW2           1 RES     
   10071 OW          24.7994    11.6470    17.2330 OW            1 RES     
   10072 HW1         25.0544    12.6020    17.0850 HW1           1 RES     
   10073 HW2         25.6194    11.0750    17.2150 HW2           1 RES     
   10074 OW          43.9704    42.4050    11.9120 OW            1 RES     
   10075 HW1         43.3414    43.1810    11.9500 HW1           1 RES     
   10076 HW2         43.7574    41.7660    12.6510 HW2           1 RES     
   10077 OW          41.5804    10.1580    23.6240 OW            1 RES     
   10078 HW1         42.3504     9.7100    23.1710 HW1           1 RES     
   10079 HW2         40.7384     9.9680    23.1190 HW2           1 RES     
   10080 OW          50.4754    29.4800     0.5100 OW            1 RES     
   10081 HW1         51.2984    29.4200     1.0730 HW1           1 RES     
   10082 HW2         50.3504    28.6220     0.0100 HW2           1 RES     
   10083 OW          33.0324    36.1070    14.3540 OW            1 RES     
   10084 HW1         32.3194    36.5820    14.8690 HW1           1 RES     
   10085 HW2         33.1034    35.1630    14.6760 HW2           1 RES     
   10086 OW           6.9594    26.0850    14.6450 OW            1 RES     
   10087 HW1          6.2724    26.7580    14.3740 HW1           1 RES     
   10088 HW2          6.5844    25.4920    15.3570 HW2           1 RES     
   10089 OW          44.8714    47.9050     3.2910 OW            1 RES     
   10090 HW1         45.5854    47.7670     2.6050 HW1           1 RES     
   10091 HW2         44.6474    47.0290     3.7190 HW2           1 RES     
   10092 OW          30.8214    37.9420    10.5070 OW            1 RES     
   10093 HW1         31.7284    37.5850    10.2870 HW1           1 RES     
   10094 HW2         30.1284    37.2560    10.2820 HW2           1 RES     
   10095 OW          16.8404    35.3370     9.0000 OW            1 RES     
   10096 HW1         15.8514    35.2050     8.9420 HW1           1 RES     
   10097 HW2         17.0844    36.2170     8.5920 HW2           1 RES     
   10098 OW          55.0604    27.7760    13.9520 OW            1 RES     
   10099 HW1         54.2254    28.0860    14.4050 HW1           1 RES     
   10100 HW2         54.9944    26.7960    13.7640 HW2           1 RES     
   10101 OW          51.0584     5.6960    19.6290 OW            1 RES     
   10102 HW1         50.9494     6.6820    19.7530 HW1           1 RES     
   10103 HW2         50.6534     5.4230    18.7550 HW2           1 RES     
   10104 OW          40.5414    32.5830    17.8290 OW            1 RES     
   10105 HW1         39.8484    33.3010    17.8860 HW1           1 RES     
   10106 HW2         41.4404    32.9970    17.6870 HW2           1 RES     
   10107 OW           5.4794    28.6530    25.6520 OW            1 RES     
   10108 HW1          4.5564    28.2710    25.6190 HW1           1 RES     
   10109 HW2          5.4344    29.6460    25.5410 HW2           1 RES     
   10110 OW          39.1954    46.3970     9.7460 OW            1 RES     
   10111 HW1         39.5604    46.7650     8.8910 HW1           1 RES     
   10112 HW2         38.3064    45.9740     9.5740 HW2           1 RES     
   10113 OW           4.9574    16.3400    11.4630 OW            1 RES     
   10114 HW1          5.0884    15.3680    11.2700 HW1           1 RES     
   10115 HW2          4.8364    16.4710    12.4470 HW2           1 RES     
   10116 OW          35.8064    48.4240    18.9070 OW            1 RES     
   10117 HW1         36.7844    48.6230    18.8470 HW1           1 RES     
   10118 HW2         35.5254    48.4160    19.8670 HW2           1 RES     
   10119 OW          54.1804    37.7060    14.5710 OW            1 RES     
   10120 HW1         53.3354    37.2540    14.2860 HW1           1 RES     
   10121 HW2         53.9624    38.4700    15.1780 HW2           1 RES     
   10122 OW          56.6554    38.7800    21.1090 OW            1 RES     
   10123 HW1         56.0004    39.2140    21.7260 HW1           1 RES     
   10124 HW2         56.1804    38.4620    20.2880 HW2           1 RES     
   10125 OW          26.0594    21.0720     9.7260 OW            1 RES     
   10126 HW1         25.7404    20.7120     8.8500 HW1           1 RES     
   10127 HW2         27.0424    21.2480     9.6760 HW2           1 RES     
   10128 OW          43.2094    37.4420     7.3380 OW            1 RES     
   10129 HW1         42.2714    37.1430     7.5090 HW1           1 RES     
   10130 HW2         43.2654    38.4360     7.4330 HW2           1 RES     
   10131 OW           3.5314    48.7590    23.9340 OW            1 RES     
   10132 HW1          3.2874    48.5510    24.8800 HW1           1 RES     
   10133 HW2          4.5274    48.7880    23.8450 HW2           1 RES     
   10134 OW          48.0994    43.9610     3.7530 OW            1 RES     
   10135 HW1         48.2374    44.2770     2.8150 HW1           1 RES     
   10136 HW2         47.6964    43.0450     3.7400 HW2           1 RES     
   10137 OW          44.3364    23.0270    22.5770 OW            1 RES     
   10138 HW1         43.4084    22.6740    22.6900 HW1           1 RES     
   10139 HW2         44.9854    22.2660    22.5800 HW2           1 RES     
   10140 OW          55.0884    11.8400    14.7210 OW            1 RES     
   10141 HW1         55.1614    10.8450    14.7840 HW1           1 RES     
   10142 HW2         54.1324    12.1130    14.8330 HW2           1 RES     
   10143 OW          39.2214    26.1730     1.2830 OW            1 RES     
   10144 HW1         39.0214    26.8340     0.5610 HW1           1 RES     
   10145 HW2         38.3814    25.6940     1.5390 HW2           1 RES     
   10146 OW          54.8574     0.3590    19.1540 OW            1 RES     
   10147 HW1         54.0784     0.9850    19.1610 HW1           1 RES     
   10148 HW2         55.6884     0.8610    18.9150 HW2           1 RES     
   10149 OW          40.9934    36.3020    22.3110 OW            1 RES     
   10150 HW1         41.1144    37.1910    22.7510 HW1           1 RES     
   10151 HW2         40.0424    36.0070    22.4100 HW2           1 RES     
   10152 OW          55.3504    30.8630     2.0520 OW            1 RES     
   10153 HW1         54.5594    31.1480     1.5110 HW1           1 RES     
   10154 HW2         56.1854    31.2290     1.6410 HW2           1 RES     
   10155 OW          26.3304    18.3180     1.1720 OW            1 RES     
   10156 HW1         27.3174    18.1780     1.1040 HW1           1 RES     
   10157 HW2         26.1304    19.2980     1.1520 HW2           1 RES     
   10158 OW          30.7404    11.4260    19.5450 OW            1 RES     
   10159 HW1         30.8704    12.3620    19.2190 HW1           1 RES     
   10160 HW2         31.5714    11.1140    20.0060 HW2           1 RES     
   10161 OW          55.8884    42.5380    12.4120 OW            1 RES     
   10162 HW1         56.6434    43.0910    12.0620 HW1           1 RES     
   10163 HW2         55.0324    42.8350    11.9880 HW2           1 RES     
   10164 OW          48.6354    42.1480     0.1930 OW            1 RES     
   10165 HW1         48.2674    41.2200     0.2370 HW1           1 RES     
   10166 HW2         48.7404    42.5100     1.1200 HW2           1 RES     
   10167 OW           0.0464    14.5880    11.4400 OW            1 RES     
   10168 HW1          0.0584    15.3980    10.8540 HW1           1 RES     
   10169 HW2          0.9774    14.3810    11.7420 HW2           1 RES     
   10170 OW          41.9154    13.9180    12.0060 OW            1 RES     
   10171 HW1         42.3534    14.7610    12.3150 HW1           1 RES     
   10172 HW2         41.3664    14.1050    11.1910 HW2           1 RES     
   10173 OW          23.6424    41.2280    23.9740 OW            1 RES     
   10174 HW1         23.6904    40.2510    24.1780 HW1           1 RES     
   10175 HW2         24.5564    41.6290    24.0430 HW2           1 RES     
   10176 OW          17.4774    18.8180    19.2600 OW            1 RES     
   10177 HW1         17.0254    19.7090    19.2430 HW1           1 RES     
   10178 HW2         18.3784    18.9090    19.6870 HW2           1 RES     
   10179 OW          26.6214    26.7420    11.4830 OW            1 RES     
   10180 HW1         27.2314    26.1340    11.9900 HW1           1 RES     
   10181 HW2         27.0414    27.6460    11.4030 HW2           1 RES     
   10182 OW          35.4404    34.9580     5.0960 OW            1 RES     
   10183 HW1         35.8284    34.2850     4.4670 HW1           1 RES     
   10184 HW2         35.7904    34.7930     6.0190 HW2           1 RES     
   10185 OW          45.8434    48.6510    23.7810 OW            1 RES     
   10186 HW1         46.0424    47.8590    24.3570 HW1           1 RES     
   10187 HW2         46.6844    49.1710    23.6260 HW2           1 RES     
   10188 OW          37.7514     5.9980    18.9950 OW            1 RES     
   10189 HW1         37.5524     6.7760    19.5900 HW1           1 RES     
   10190 HW2         38.6784     5.6680    19.1760 HW2           1 RES     
   10191 OW          13.2704    37.7620    22.5650 OW            1 RES     
   10192 HW1         13.9224    38.4710    22.2990 HW1           1 RES     
   10193 HW2         12.4914    37.7720    21.9390 HW2           1 RES     
   10194 OW          15.9024    18.2470    10.9920 OW            1 RES     
   10195 HW1         15.0044    17.8630    10.7760 HW1           1 RES     
   10196 HW2         16.2704    18.7090    10.1850 HW2           1 RES     
   10197 OW          53.7454    20.5360    17.9520 OW            1 RES     
   10198 HW1         53.5674    20.5650    16.9690 HW1           1 RES     
   10199 HW2         53.7664    21.4680    18.3150 HW2           1 RES     
   10200 OW          40.6364    29.9140    25.9270 OW            1 RES     
   10201 HW1         40.8044    30.7210    25.3620 HW1           1 RES     
   10202 HW2         39.6564    29.8340    26.1120 HW2           1 RES     
   10203 OW          35.0494     8.8430    18.9900 OW            1 RES     
   10204 HW1         34.7874     9.7250    19.3780 HW1           1 RES     
   10205 HW2         34.4374     8.1310    19.3360 HW2           1 RES     
   10206 OW           3.5524    14.2190    12.4860 OW            1 RES     
   10207 HW1          2.9954    15.0340    12.3320 HW1           1 RES     
   10208 HW2          2.9634    13.4580    12.7590 HW2           1 RES     
   10209 OW          44.5514     6.5600    20.6060 OW            1 RES     
   10210 HW1         44.1134     6.7080    21.4920 HW1           1 RES     
   10211 HW2         45.0134     5.6730    20.6060 HW2           1 RES     
   10212 OW          25.0844     2.1280     7.1790 OW            1 RES     
   10213 HW1         25.6864     1.5790     6.6010 HW1           1 RES     
   10214 HW2         24.1944     1.6780     7.2560 HW2           1 RES     
   10215 OW          52.4904    37.9880    21.5420 OW            1 RES     
   10216 HW1         53.1384    38.0680    20.7850 HW1           1 RES     
   10217 HW2         52.5874    38.7770    22.1490 HW2           1 RES     
   10218 OW          20.2394    22.0420    23.2230 OW            1 RES     
   10219 HW1         21.0174    21.4180    23.2880 HW1           1 RES     
   10220 HW2         19.3884    21.5180    23.2410 HW2           1 RES     
   10221 OW           2.3674    36.9600    10.2340 OW            1 RES     
   10222 HW1          1.8484    37.7880    10.0250 HW1           1 RES     
   10223 HW2          3.2744    37.2120    10.5740 HW2           1 RES     
   10224 OW           1.1364    29.7660    14.3820 OW            1 RES     
   10225 HW1          1.6854    30.4560    14.8530 HW1           1 RES     
   10226 HW2          0.2324    30.1420    14.1780 HW2           1 RES     
   10227 OW          31.1474    44.5180    19.3970 OW            1 RES     
   10228 HW1         30.8614    45.4730    19.4750 HW1           1 RES     
   10229 HW2         32.1304    44.4490    19.5660 HW2           1 RES     
   10230 OW          50.0484     1.0310    13.9980 OW            1 RES     
   10231 HW1         50.7784     0.3500    13.9520 HW1           1 RES     
   10232 HW2         50.4444     1.9340    14.1640 HW2           1 RES     
   10233 OW          52.4224     8.6970     8.4760 OW            1 RES     
   10234 HW1         51.8264     9.1820     9.1160 HW1           1 RES     
   10235 HW2         53.3054     8.5210     8.9110 HW2           1 RES     
   10236 OW          23.7594    41.4940     3.8750 OW            1 RES     
   10237 HW1         23.0214    41.9830     4.3380 HW1           1 RES     
   10238 HW2         23.4324    40.5960     3.5810 HW2           1 RES     
   10239 OW          56.3094    25.2340    12.1700 OW            1 RES     
   10240 HW1         56.7324    25.3950    13.0600 HW1           1 RES     
   10241 HW2         56.9164    25.5640    11.4460 HW2           1 RES     
   10242 OW          38.3334    17.4630    18.1290 OW            1 RES     
   10243 HW1         38.0714    17.9790    18.9440 HW1           1 RES     
   10244 HW2         37.5264    17.3080    17.5580 HW2           1 RES     
   10245 OW          54.9324    41.9890     3.3250 OW            1 RES     
   10246 HW1         54.0864    41.7270     2.8610 HW1           1 RES     
   10247 HW2         54.7124    42.4990     4.1570 HW2           1 RES     
   10248 OW          15.3764    36.9600     4.3970 OW            1 RES     
   10249 HW1         15.5094    36.0110     4.6800 HW1           1 RES     
   10250 HW2         14.9414    36.9830     3.4960 HW2           1 RES     
   10251 OW          17.1174    13.0470    13.4340 OW            1 RES     
   10252 HW1         18.0284    12.6590    13.2980 HW1           1 RES     
   10253 HW2         17.1774    14.0450    13.4460 HW2           1 RES     
   10254 OW          35.6694    25.1660    11.8300 OW            1 RES     
   10255 HW1         35.4214    26.0120    11.3600 HW1           1 RES     
   10256 HW2         35.3524    24.3820    11.2960 HW2           1 RES     
   10257 OW           6.0274    32.5510    19.7210 OW            1 RES     
   10258 HW1          6.7434    32.2850    20.3640 HW1           1 RES     
   10259 HW2          6.3924    33.2170    19.0700 HW2           1 RES     
   10260 OW          25.1364    37.1560    17.1540 OW            1 RES     
   10261 HW1         25.5844    37.1450    18.0480 HW1           1 RES     
   10262 HW2         24.6604    36.2880    17.0090 HW2           1 RES     
   10263 OW          16.3574    15.6450     7.9990 OW            1 RES     
   10264 HW1         16.8224    16.3450     8.5400 HW1           1 RES     
   10265 HW2         16.9614    15.3340     7.2650 HW2           1 RES     
   10266 OW          47.1614    33.3940    25.6170 OW            1 RES     
   10267 HW1         47.7554    32.7690    25.1120 HW1           1 RES     
   10268 HW2         46.3594    32.8960    25.9500 HW2           1 RES     
   10269 OW          46.8164    12.8340     2.8390 OW            1 RES     
   10270 HW1         46.4494    11.9710     2.4910 HW1           1 RES     
   10271 HW2         47.0204    12.7410     3.8130 HW2           1 RES     
   10272 OW          10.1834    48.5370    11.6550 OW            1 RES     
   10273 HW1         10.9714    49.1510    11.6160 HW1           1 RES     
   10274 HW2         10.3104    47.7890    11.0040 HW2           1 RES     
   10275 OW          36.9074     3.4520    24.8410 OW            1 RES     
   10276 HW1         37.8994     3.5450    24.7720 HW1           1 RES     
   10277 HW2         36.5234     4.2720    25.2650 HW2           1 RES     
   10278 OW          50.2664     8.7720    17.0230 OW            1 RES     
   10279 HW1         51.1164     8.8740    16.5060 HW1           1 RES     
   10280 HW2         50.3684     9.2030    17.9200 HW2           1 RES     
   10281 OW           1.2634    30.9540    26.5130 OW            1 RES     
   10282 HW1          2.1274    31.3040    26.8730 HW1           1 RES     
   10283 HW2          0.6684    31.7200    26.2690 HW2           1 RES     
   10284 OW          23.6124    14.8960     8.4780 OW            1 RES     
   10285 HW1         24.5924    15.0380     8.3420 HW1           1 RES     
   10286 HW2         23.1664    15.7780     8.6320 HW2           1 RES     
   10287 OW           4.8724    26.9050     3.8790 OW            1 RES     
   10288 HW1          5.8514    26.7950     4.0500 HW1           1 RES     
   10289 HW2          4.4534    26.0070     3.7480 HW2           1 RES     
   10290 OW          45.0394    10.4310    24.2090 OW            1 RES     
   10291 HW1         44.1404    10.0750    24.4620 HW1           1 RES     
   10292 HW2         44.9914    11.4250    24.1140 HW2           1 RES     
   10293 OW          48.8534    20.7620     1.9700 OW            1 RES     
   10294 HW1         48.5974    21.6780     2.2760 HW1           1 RES     
   10295 HW2         49.6944    20.4780     2.4320 HW2           1 RES     
   10296 OW          52.5234    34.7720     2.0250 OW            1 RES     
   10297 HW1         52.3444    33.7880     2.0250 HW1           1 RES     
   10298 HW2         51.6564    35.2690     2.0510 HW2           1 RES     
   10299 OW          12.2554     9.5470    16.7650 OW            1 RES     
   10300 HW1         12.6574     9.0750    15.9810 HW1           1 RES     
   10301 HW2         12.7044     9.2410    17.6050 HW2           1 RES     
   10302 OW           0.0054    20.3510    13.5570 OW            1 RES     
   10303 HW1          0.2764    21.3010    13.4070 HW1           1 RES     
   10304 HW2          0.7864    19.7500    13.3880 HW2           1 RES     
   10305 OW           1.1244    22.1850    10.9690 OW            1 RES     
   10306 HW1          0.6174    21.3280    11.0530 HW1           1 RES     
   10307 HW2          2.0324    22.0010    10.5920 HW2           1 RES     
   10308 OW          54.0954     6.1500    13.8310 OW            1 RES     
   10309 HW1         53.5134     6.8460    13.4120 HW1           1 RES     
   10310 HW2         54.9724     6.5570    14.0850 HW2           1 RES     
   10311 OW          24.0894    15.7610    19.4070 OW            1 RES     
   10312 HW1         23.5584    15.0190    19.0000 HW1           1 RES     
   10313 HW2         24.7884    15.3790    20.0120 HW2           1 RES     
   10314 OW          55.3044    18.3260    17.2350 OW            1 RES     
   10315 HW1         55.4254    19.3180    17.2060 HW1           1 RES     
   10316 HW2         56.1784    17.8890    17.4450 HW2           1 RES     
   10317 OW           7.1424    33.9010    21.8730 OW            1 RES     
   10318 HW1          7.9204    33.2840    21.9860 HW1           1 RES     
   10319 HW2          7.4184    34.6880    21.3210 HW2           1 RES     
   10320 OW          27.9374     1.1950     6.7940 OW            1 RES     
   10321 HW1         28.5704     1.9090     6.4960 HW1           1 RES     
   10322 HW2         27.7294     0.5910     6.0250 HW2           1 RES     
   10323 OW          50.3324    18.0460    15.4280 OW            1 RES     
   10324 HW1         49.3784    18.0630    15.1320 HW1           1 RES     
   10325 HW2         50.5754    17.1190    15.7150 HW2           1 RES     
   10326 OW          28.4434    45.2740     5.3680 OW            1 RES     
   10327 HW1         29.1944    44.9040     4.8220 HW1           1 RES     
   10328 HW2         28.3514    46.2540     5.1890 HW2           1 RES     
   10329 OW          19.7504    13.3000    26.3250 OW            1 RES     
   10330 HW1         20.4804    13.4680    25.6620 HW1           1 RES     
   10331 HW2         20.1434    12.9390    27.1700 HW2           1 RES     
   10332 OW          28.2614    17.6240     9.6880 OW            1 RES     
   10333 HW1         28.9394    18.2370    10.0930 HW1           1 RES     
   10334 HW2         28.6754    16.7280     9.5270 HW2           1 RES     
   10335 OW          14.8024     8.4580     3.2650 OW            1 RES     
   10336 HW1         14.3334     7.8240     2.6520 HW1           1 RES     
   10337 HW2         14.8634     9.3580     2.8320 HW2           1 RES     
   10338 OW          18.1344     5.0840     3.4090 OW            1 RES     
   10339 HW1         18.4084     4.7220     2.5190 HW1           1 RES     
   10340 HW2         18.1724     6.0830     3.3900 HW2           1 RES     
   10341 OW          55.4634    46.7240    21.5820 OW            1 RES     
   10342 HW1         54.7654    47.4130    21.3880 HW1           1 RES     
   10343 HW2         55.1334    46.1080    22.2970 HW2           1 RES     
   10344 OW           0.0574    14.7340     0.6380 OW            1 RES     
   10345 HW1          0.9024    15.1940     0.9090 HW1           1 RES     
   10346 HW2          0.1354    13.7550     0.8260 HW2           1 RES     
   10347 OW           7.6024    20.4120    16.3710 OW            1 RES     
   10348 HW1          8.0654    19.5530    16.5860 HW1           1 RES     
   10349 HW2          6.6134    20.2650    16.3620 HW2           1 RES     
   10350 OW          19.6454     1.8070    19.0770 OW            1 RES     
   10351 HW1         20.5274     2.2450    18.9070 HW1           1 RES     
   10352 HW2         19.1654     2.2930    19.8070 HW2           1 RES     
   10353 OW          50.5544    15.5720    19.0370 OW            1 RES     
   10354 HW1         50.9064    16.5010    18.9350 HW1           1 RES     
   10355 HW2         51.2814    14.9140    18.8370 HW2           1 RES     
   10356 OW          35.4614    33.4630    22.4050 OW            1 RES     
   10357 HW1         36.4604    33.5010    22.3870 HW1           1 RES     
   10358 HW2         35.0924    34.3930    22.3900 HW2           1 RES     
   10359 OW          31.6954    34.6080     9.2370 OW            1 RES     
   10360 HW1         32.0434    35.5150     9.0030 HW1           1 RES     
   10361 HW2         31.5564    34.5480    10.2260 HW2           1 RES     
   10362 OW           2.1764    36.0800    18.8120 OW            1 RES     
   10363 HW1          2.0614    36.8870    18.2330 HW1           1 RES     
   10364 HW2          2.1874    35.2590    18.2410 HW2           1 RES     
   10365 OW          42.0754    35.6310    18.9140 OW            1 RES     
   10366 HW1         41.2234    35.1700    19.1600 HW1           1 RES     
   10367 HW2         41.8724    36.5470    18.5670 HW2           1 RES     
   10368 OW           8.2274    42.8680     0.7750 OW            1 RES     
   10369 HW1          7.5114    43.5580     0.8770 HW1           1 RES     
   10370 HW2          9.1224    43.3150     0.7640 HW2           1 RES     
   10371 OW          14.0264    22.5300    13.7960 OW            1 RES     
   10372 HW1         13.6504    21.9580    13.0680 HW1           1 RES     
   10373 HW2         14.9914    22.3060    13.9310 HW2           1 RES     
   10374 OW          30.0214    41.8180     7.7150 OW            1 RES     
   10375 HW1         30.4724    41.8570     8.6060 HW1           1 RES     
   10376 HW2         29.9224    40.8630     7.4320 HW2           1 RES     
   10377 OW           8.0804     9.2760    20.3880 OW            1 RES     
   10378 HW1          8.9754     9.2940    20.8320 HW1           1 RES     
   10379 HW2          8.1874     9.4770    19.4140 HW2           1 RES     
   10380 OW          19.6784    14.4490    15.5450 OW            1 RES     
   10381 HW1         19.7344    13.5200    15.1820 HW1           1 RES     
   10382 HW2         18.7374    14.6420    15.8240 HW2           1 RES     
   10383 OW          34.4154    32.2320    17.9490 OW            1 RES     
   10384 HW1         33.5944    31.6680    18.0260 HW1           1 RES     
   10385 HW2         35.2134    31.6440    17.8130 HW2           1 RES     
   10386 OW          21.5584    43.7750     6.8110 OW            1 RES     
   10387 HW1         21.7964    42.8990     6.3940 HW1           1 RES     
   10388 HW2         20.7404    43.6650     7.3760 HW2           1 RES     
   10389 OW          19.1464    30.9410    25.7940 OW            1 RES     
   10390 HW1         18.4484    30.6170    26.4320 HW1           1 RES     
   10391 HW2         19.4384    31.8610    26.0580 HW2           1 RES     
   10392 OW           2.3954    36.1410    26.5900 OW            1 RES     
   10393 HW1          3.2314    35.6040    26.6980 HW1           1 RES     
   10394 HW2          1.6154    35.5260    26.4720 HW2           1 RES     
   10395 OW          41.8144    18.6940     3.6180 OW            1 RES     
   10396 HW1         41.5694    18.1440     2.8200 HW1           1 RES     
   10397 HW2         42.0804    19.6110     3.3220 HW2           1 RES     
   10398 OW           5.3834    40.0720    11.8840 OW            1 RES     
   10399 HW1          5.9224    40.8120    11.4830 HW1           1 RES     
   10400 HW2          4.5114    39.9940    11.4000 HW2           1 RES     
   10401 OW          34.0054     0.7930    13.2630 OW            1 RES     
   10402 HW1         33.5844     1.0170    14.1420 HW1           1 RES     
   10403 HW2         34.3974     1.6200    12.8600 HW2           1 RES     
   10404 OW          25.1964    37.8100    13.4800 OW            1 RES     
   10405 HW1         25.5514    38.6930    13.1760 HW1           1 RES     
   10406 HW2         25.4544    37.1010    12.8240 HW2           1 RES     
   10407 OW          37.7064    48.2870     8.3790 OW            1 RES     
   10408 HW1         36.9294    48.3130     7.7500 HW1           1 RES     
   10409 HW2         38.5334    48.5810     7.9000 HW2           1 RES     
   10410 OW          51.9114    42.9990    23.2150 OW            1 RES     
   10411 HW1         51.7054    42.2690    23.8650 HW1           1 RES     
   10412 HW2         52.5464    42.6590    22.5200 HW2           1 RES     
   10413 OW          33.4524    38.4910    21.6540 OW            1 RES     
   10414 HW1         34.0934    37.9030    22.1450 HW1           1 RES     
   10415 HW2         33.5304    38.3230    20.6710 HW2           1 RES     
   10416 OW          32.2784    18.7010     7.2750 OW            1 RES     
   10417 HW1         31.3874    18.4880     7.6730 HW1           1 RES     
   10418 HW2         32.9794    18.6670     7.9880 HW2           1 RES     
   10419 OW          14.3544    17.9770     7.6910 OW            1 RES     
   10420 HW1         15.0574    18.6230     7.3950 HW1           1 RES     
   10421 HW2         14.7264    17.3810     8.4030 HW2           1 RES     
   10422 OW          55.6944    48.3130     1.1340 OW            1 RES     
   10423 HW1         56.2044    47.5020     0.8470 HW1           1 RES     
   10424 HW2         54.7464    48.2380     0.8250 HW2           1 RES     
   10425 OW          31.5824    38.5550     7.9580 OW            1 RES     
   10426 HW1         31.4004    37.5800     8.0870 HW1           1 RES     
   10427 HW2         32.4674    38.7850     8.3640 HW2           1 RES     
   10428 OW          31.2194    18.7190     4.9330 OW            1 RES     
   10429 HW1         32.1234    19.1290     4.8190 HW1           1 RES     
   10430 HW2         31.0884    18.0020     4.2480 HW2           1 RES     
   10431 OW          35.1294     0.6950    22.3320 OW            1 RES     
   10432 HW1         35.0334     1.6870    22.2700 HW1           1 RES     
   10433 HW2         36.0724     0.4360    22.1230 HW2           1 RES     
   10434 OW          29.1564     2.0120    11.9780 OW            1 RES     
   10435 HW1         28.9754     1.0460    11.7960 HW1           1 RES     
   10436 HW2         28.2954     2.5220    11.9620 HW2           1 RES     
   10437 OW          39.5304    27.2000    15.0160 OW            1 RES     
   10438 HW1         39.9154    27.9020    14.4180 HW1           1 RES     
   10439 HW2         40.1774    26.9950    15.7500 HW2           1 RES     
   10440 OW          53.1374    37.7210    24.2070 OW            1 RES     
   10441 HW1         53.0614    36.7260    24.2740 HW1           1 RES     
   10442 HW2         54.0774    37.9980    24.4070 HW2           1 RES     
   10443 OW          27.3114    30.8190    14.1920 OW            1 RES     
   10444 HW1         27.7384    31.7220    14.2070 HW1           1 RES     
   10445 HW2         28.0204    30.1140    14.1840 HW2           1 RES     
   10446 OW           4.3154    48.2850     7.1500 OW            1 RES     
   10447 HW1          3.9034    49.1750     6.9570 HW1           1 RES     
   10448 HW2          3.6164    47.6640     7.5050 HW2           1 RES     
   10449 OW          48.7524    21.9130    22.2980 OW            1 RES     
   10450 HW1         49.2144    21.9350    23.1840 HW1           1 RES     
   10451 HW2         49.4144    22.1010    21.5720 HW2           1 RES     
   10452 OW          29.0134    26.0080     5.3790 OW            1 RES     
   10453 HW1         28.9884    25.0810     5.0060 HW1           1 RES     
   10454 HW2         29.6374    26.5700     4.8350 HW2           1 RES     
   10455 OW          18.7404    19.5240    22.4610 OW            1 RES     
   10456 HW1         18.5664    19.0740    23.3370 HW1           1 RES     
   10457 HW2         17.8704    19.7570    22.0270 HW2           1 RES     
   10458 OW          46.8634    26.9850    20.2760 OW            1 RES     
   10459 HW1         47.3424    27.2670    19.4450 HW1           1 RES     
   10460 HW2         45.9934    27.4730    20.3420 HW2           1 RES     
   10461 OW           8.2324    12.5980    20.3820 OW            1 RES     
   10462 HW1          7.8704    12.0280    19.6450 HW1           1 RES     
   10463 HW2          9.1784    12.8490    20.1770 HW2           1 RES     
   10464 OW          54.6354     5.4500     8.6100 OW            1 RES     
   10465 HW1         54.9584     4.5510     8.9050 HW1           1 RES     
   10466 HW2         54.8034     5.5590     7.6300 HW2           1 RES     
   10467 OW           2.0974    31.1780     5.2290 OW            1 RES     
   10468 HW1          3.0054    31.4880     5.5090 HW1           1 RES     
   10469 HW2          2.1684    30.2730     4.8100 HW2           1 RES     
   10470 OW          56.0284    12.3400    12.1960 OW            1 RES     
   10471 HW1         55.5814    12.7790    11.4170 HW1           1 RES     
   10472 HW2         55.5134    11.5250    12.4610 HW2           1 RES     
   10473 OW           0.0464     4.2010    18.3760 OW            1 RES     
   10474 HW1          0.3804     4.3840    19.3000 HW1           1 RES     
   10475 HW2          0.0024     5.0570    17.8610 HW2           1 RES     
   10476 OW           2.6914    34.5170     5.7520 OW            1 RES     
   10477 HW1          2.2994    33.6010     5.8290 HW1           1 RES     
   10478 HW2          2.2584    35.0030     4.9920 HW2           1 RES     
   10479 OW          23.7324    28.7830    23.0740 OW            1 RES     
   10480 HW1         24.5364    28.2240    22.8730 HW1           1 RES     
   10481 HW2         22.9044    28.2710    22.8480 HW2           1 RES     
   10482 OW          48.8394    28.7560    24.1580 OW            1 RES     
   10483 HW1         48.8864    27.8150    24.4910 HW1           1 RES     
   10484 HW2         48.6054    28.7560    23.1860 HW2           1 RES     
   10485 OW          22.1534     5.0530     4.7860 OW            1 RES     
   10486 HW1         22.2784     4.5140     5.6180 HW1           1 RES     
   10487 HW2         21.2154     4.9440     4.4560 HW2           1 RES     
   10488 OW          51.2874    11.5460    21.4110 OW            1 RES     
   10489 HW1         51.3174    12.3270    22.0340 HW1           1 RES     
   10490 HW2         51.9674    10.8690    21.6920 HW2           1 RES     
   10491 OW          41.8834    15.0260     4.3110 OW            1 RES     
   10492 HW1         41.2324    14.2680     4.2820 HW1           1 RES     
   10493 HW2         42.6804    14.8030     3.7490 HW2           1 RES     
   10494 OW          27.7904     2.4630     8.9240 OW            1 RES     
   10495 HW1         28.2804     1.6310     9.1840 HW1           1 RES     
   10496 HW2         26.8724     2.2240     8.6080 HW2           1 RES     
   10497 OW          30.8094    24.3010    18.3240 OW            1 RES     
   10498 HW1         30.5124    23.3610    18.4890 HW1           1 RES     
   10499 HW2         30.0354    24.9220    18.4510 HW2           1 RES     
   10500 OW          13.0904    19.4110    27.1150 OW            1 RES     
   10501 HW1         12.2784    18.9090    26.8200 HW1           1 RES     
   10502 HW2         13.9054    18.9940    26.7130 HW2           1 RES     
   10503 OW          46.7614    34.1860    11.1220 OW            1 RES     
   10504 HW1         46.8134    33.2570    11.4860 HW1           1 RES     
   10505 HW2         47.6264    34.6600    11.2910 HW2           1 RES     
   10506 OW          22.8874    33.1340    26.2150 OW            1 RES     
   10507 HW1         23.6694    33.6130    26.6110 HW1           1 RES     
   10508 HW2         22.0674    33.7010    26.3060 HW2           1 RES     
   10509 OW          21.3694    30.1410    20.5740 OW            1 RES     
   10510 HW1         21.9724    29.6700    19.9310 HW1           1 RES     
   10511 HW2         21.6734    31.0870    20.6850 HW2           1 RES     
   10512 OW          37.1584    35.9620    14.4300 OW            1 RES     
   10513 HW1         37.4094    36.4070    13.5720 HW1           1 RES     
   10514 HW2         36.2104    35.6460    14.3780 HW2           1 RES     
   10515 OW          46.0544    39.1750    21.8530 OW            1 RES     
   10516 HW1         46.2904    38.2050    21.8070 HW1           1 RES     
   10517 HW2         46.8604    39.7250    21.6330 HW2           1 RES     
   10518 OW          48.2014    40.3470    25.1650 OW            1 RES     
   10519 HW1         49.0504    40.8730    25.1890 HW1           1 RES     
   10520 HW2         47.4654    40.8800    25.5830 HW2           1 RES     
   10521 OW          56.2364    40.9730     4.8490 OW            1 RES     
   10522 HW1         55.3754    40.4660     4.8700 HW1           1 RES     
   10523 HW2         56.6544    40.9590     5.7580 HW2           1 RES     
   10524 OW          18.9864    40.9130    16.5210 OW            1 RES     
   10525 HW1         18.6284    40.1660    17.0810 HW1           1 RES     
   10526 HW2         19.8914    41.1770    16.8560 HW2           1 RES     
   10527 OW          19.6254     0.0220     9.6560 OW            1 RES     
   10528 HW1         18.6774     0.1890     9.9240 HW1           1 RES     
   10529 HW2         19.6944     0.0200     8.6580 HW2           1 RES     
   10530 OW          56.1014    16.2700     5.4600 OW            1 RES     
   10531 HW1         55.4314    16.7080     4.8610 HW1           1 RES     
   10532 HW2         55.9804    16.6020     6.3950 HW2           1 RES     
   10533 OW          28.6704    41.9150    24.5980 OW            1 RES     
   10534 HW1         28.3274    40.9820    24.4920 HW1           1 RES     
   10535 HW2         28.0364    42.5550    24.1630 HW2           1 RES     
   10536 OW          37.8274     9.8920    19.0390 OW            1 RES     
   10537 HW1         37.1454     9.6180    18.3630 HW1           1 RES     
   10538 HW2         38.3144    10.7020    18.7140 HW2           1 RES     
   10539 OW          33.3434     6.4060     2.1050 OW            1 RES     
   10540 HW1         33.6564     7.0740     1.4310 HW1           1 RES     
   10541 HW2         32.5304     5.9370     1.7580 HW2           1 RES     
   10542 OW          55.3404    36.1120     4.4870 OW            1 RES     
   10543 HW1         54.5294    36.6880     4.4000 HW1           1 RES     
   10544 HW2         55.0644    35.1740     4.6990 HW2           1 RES     
   10545 OW           6.7144    47.1770     2.9810 OW            1 RES     
   10546 HW1          7.2284    47.1690     2.1240 HW1           1 RES     
   10547 HW2          6.4044    48.1080     3.1750 HW2           1 RES     
   10548 OW          33.2654     9.7050     6.7020 OW            1 RES     
   10549 HW1         34.1674     9.7220     7.1320 HW1           1 RES     
   10550 HW2         32.8444    10.6100     6.7730 HW2           1 RES     
   10551 OW          42.9084     9.7320     6.2300 OW            1 RES     
   10552 HW1         43.3134    10.6020     6.5090 HW1           1 RES     
   10553 HW2         43.5364     8.9860     6.4500 HW2           1 RES     
   10554 OW          14.8554    41.5920    20.3980 OW            1 RES     
   10555 HW1         15.2044    42.4610    20.7490 HW1           1 RES     
   10556 HW2         15.4854    41.2340    19.7090 HW2           1 RES     
   10557 OW          43.9174    29.2560    23.1650 OW            1 RES     
   10558 HW1         44.3014    30.1730    23.2650 HW1           1 RES     
   10559 HW2         44.1154    28.7190    23.9860 HW2           1 RES     
   10560 OW          11.1674    13.4290     8.0170 OW            1 RES     
   10561 HW1         11.3234    12.4500     8.1480 HW1           1 RES     
   10562 HW2         11.7854    13.7730     7.3090 HW2           1 RES     
   10563 OW          29.4404    19.2830    15.2360 OW            1 RES     
   10564 HW1         30.2024    19.6900    15.7380 HW1           1 RES     
   10565 HW2         29.1864    18.4140    15.6600 HW2           1 RES     
   10566 OW          30.2244    10.1810    21.4750 OW            1 RES     
   10567 HW1         29.7984    10.1270    22.3770 HW1           1 RES     
   10568 HW2         29.5344    10.0190    20.7690 HW2           1 RES     
   10569 OW          17.7014     8.0880    19.1880 OW            1 RES     
   10570 HW1         16.8244     7.6120    19.2440 HW1           1 RES     
   10571 HW2         17.5414     9.0660    19.0490 HW2           1 RES     
   10572 OW          48.0654     9.1710    25.1060 OW            1 RES     
   10573 HW1         48.2374     9.7960    25.8670 HW1           1 RES     
   10574 HW2         48.9334     8.9200    24.6770 HW2           1 RES     
   10575 OW           4.5344    42.8040    15.2470 OW            1 RES     
   10576 HW1          4.8994    43.7190    15.0800 HW1           1 RES     
   10577 HW2          5.2634    42.1280    15.1360 HW2           1 RES     
   10578 OW          23.6724    27.4720    10.7380 OW            1 RES     
   10579 HW1         24.0594    28.3540    10.4680 HW1           1 RES     
   10580 HW2         23.8454    27.3160    11.7100 HW2           1 RES     
   10581 OW          11.0944    29.2490     4.7240 OW            1 RES     
   10582 HW1         11.9054    28.6860     4.8790 HW1           1 RES     
   10583 HW2         10.3004    28.6580     4.5810 HW2           1 RES     
   10584 OW          27.4974    11.9230    18.8050 OW            1 RES     
   10585 HW1         27.4584    12.7560    18.2550 HW1           1 RES     
   10586 HW2         28.3814    11.4750    18.6710 HW2           1 RES     
   10587 OW          10.2074     2.0170    23.3120 OW            1 RES     
   10588 HW1          9.3004     1.6070    23.2310 HW1           1 RES     
   10589 HW2         10.8984     1.2950    23.3550 HW2           1 RES     
   10590 OW          29.6524    12.7280    13.5880 OW            1 RES     
   10591 HW1         29.3444    12.6420    12.6410 HW1           1 RES     
   10592 HW2         29.5564    13.6780    13.8860 HW2           1 RES     
   10593 OW          32.2254    40.5630     5.5410 OW            1 RES     
   10594 HW1         32.3604    41.5280     5.3210 HW1           1 RES     
   10595 HW2         31.6474    40.1390     4.8420 HW2           1 RES     
   10596 OW          54.2084    31.1390     6.3740 OW            1 RES     
   10597 HW1         54.9574    30.9060     6.9930 HW1           1 RES     
   10598 HW2         53.3344    30.9210     6.8090 HW2           1 RES     
   10599 OW          30.8494     7.6810    15.0230 OW            1 RES     
   10600 HW1         29.8774     7.6700    14.7900 HW1           1 RES     
   10601 HW2         31.2354     8.5760    14.8020 HW2           1 RES     
   10602 OW          40.5634    30.7700     0.5800 OW            1 RES     
   10603 HW1         40.2484    29.9310     0.1390 HW1           1 RES     
   10604 HW2         41.4414    31.0440     0.1890 HW2           1 RES     
   10605 OW          14.9304    46.0350    19.5400 OW            1 RES     
   10606 HW1         14.6814    45.0700    19.6140 HW1           1 RES     
   10607 HW2         15.8534    46.1700    19.8990 HW2           1 RES     
   10608 OW           1.1524    11.4320     8.0700 OW            1 RES     
   10609 HW1          0.5394    12.2210     8.0680 HW1           1 RES     
   10610 HW2          1.9854    11.6550     7.5620 HW2           1 RES     
   10611 OW          50.4984    31.1600    22.4480 OW            1 RES     
   10612 HW1         50.1184    30.2530    22.6250 HW1           1 RES     
   10613 HW2         49.7544    31.8230    22.3600 HW2           1 RES     
   10614 OW          12.6274    47.9210     2.5530 OW            1 RES     
   10615 HW1         12.6824    48.8860     2.8080 HW1           1 RES     
   10616 HW2         11.6764    47.6800     2.3600 HW2           1 RES     
   10617 OW          21.6424    19.0830    21.6180 OW            1 RES     
   10618 HW1         21.7134    18.1210    21.8780 HW1           1 RES     
   10619 HW2         20.9384    19.1880    20.9150 HW2           1 RES     
   10620 OW           1.2084    14.6830    21.9060 OW            1 RES     
   10621 HW1          0.3254    14.3680    21.5590 HW1           1 RES     
   10622 HW2          1.7064    15.1510    21.1770 HW2           1 RES     
   10623 OW          51.8274    41.8910     1.0920 OW            1 RES     
   10624 HW1         50.8994    42.0910     0.7810 HW1           1 RES     
   10625 HW2         52.1424    42.6240     1.6960 HW2           1 RES     
   10626 OW           4.9604    36.0320    17.7460 OW            1 RES     
   10627 HW1          4.2514    36.6930    17.9890 HW1           1 RES     
   10628 HW2          5.7884    36.5170    17.4650 HW2           1 RES     
   10629 OW          10.2254    33.6570     1.1670 OW            1 RES     
   10630 HW1          9.9514    32.9240     0.5460 HW1           1 RES     
   10631 HW2         10.5004    33.2660     2.0450 HW2           1 RES     
   10632 OW          55.9584    34.5150    14.6150 OW            1 RES     
   10633 HW1         56.9224    34.4670    14.3560 HW1           1 RES     
   10634 HW2         55.8184    34.0240    15.4750 HW2           1 RES     
   10635 OW          24.9234    35.7120     6.0820 OW            1 RES     
   10636 HW1         25.4564    34.8870     6.2630 HW1           1 RES     
   10637 HW2         23.9504    35.4820     6.0590 HW2           1 RES     
   10638 OW          14.1194    29.1640    21.4580 OW            1 RES     
   10639 HW1         14.8744    29.7630    21.1920 HW1           1 RES     
   10640 HW2         14.2894    28.8000    22.3740 HW2           1 RES     
   10641 OW          33.3104     6.3460     8.6840 OW            1 RES     
   10642 HW1         32.4344     6.4500     9.1540 HW1           1 RES     
   10643 HW2         33.6244     7.2380     8.3590 HW2           1 RES     
   10644 OW           1.1004    10.1780     1.2110 OW            1 RES     
   10645 HW1          0.1654    10.5310     1.2020 HW1           1 RES     
   10646 HW2          1.5754    10.4730     0.3820 HW2           1 RES     
   10647 OW          20.1054    45.4260    12.0070 OW            1 RES     
   10648 HW1         20.9174    46.0090    12.0030 HW1           1 RES     
   10649 HW2         20.3424    44.5260    12.3740 HW2           1 RES     
   10650 OW           5.3264    26.4040    12.4180 OW            1 RES     
   10651 HW1          5.0544    25.4470    12.3250 HW1           1 RES     
   10652 HW2          4.5214    26.9910    12.3220 HW2           1 RES     
   10653 OW           1.9424    19.7520    19.6450 OW            1 RES     
   10654 HW1          1.3354    19.3820    18.9420 HW1           1 RES     
   10655 HW2          2.7074    19.1250    19.7890 HW2           1 RES     
   10656 OW          20.0434    45.5100    15.1060 OW            1 RES     
   10657 HW1         19.3404    45.3370    14.4160 HW1           1 RES     
   10658 HW2         20.8714    45.8520    14.6600 HW2           1 RES     
   10659 OW          19.7904    23.1440    21.2750 OW            1 RES     
   10660 HW1         19.6164    22.3180    20.7390 HW1           1 RES     
   10661 HW2         19.0224    23.3090    21.8940 HW2           1 RES     
   10662 OW          14.5014    15.5140    21.3470 OW            1 RES     
   10663 HW1         15.0534    15.0700    20.6410 HW1           1 RES     
   10664 HW2         15.0894    16.0850    21.9200 HW2           1 RES     
   10665 OW          29.9064     1.1830    23.1270 OW            1 RES     
   10666 HW1         30.4294     0.5760    23.7240 HW1           1 RES     
   10667 HW2         28.9404     1.1550    23.3850 HW2           1 RES     
   10668 OW          12.2364     3.9510     2.8810 OW            1 RES     
   10669 HW1         12.7254     4.7530     2.5400 HW1           1 RES     
   10670 HW2         12.2814     3.9320     3.8800 HW2           1 RES     
   10671 OW          18.3434     7.4320    24.2650 OW            1 RES     
   10672 HW1         17.8004     8.2100    23.9520 HW1           1 RES     
   10673 HW2         17.7434     6.6460    24.4170 HW2           1 RES     
   10674 OW          36.5364    14.8580    19.8020 OW            1 RES     
   10675 HW1         36.0754    15.6030    20.2810 HW1           1 RES     
   10676 HW2         36.0324    14.0060    19.9440 HW2           1 RES     
   10677 OW          21.7134     5.4150    18.7130 OW            1 RES     
   10678 HW1         21.9844     5.7670    17.8170 HW1           1 RES     
   10679 HW2         21.7434     6.1550    19.3850 HW2           1 RES     
   10680 OW          13.4514    19.9850    24.2110 OW            1 RES     
   10681 HW1         12.7844    20.2620    23.5210 HW1           1 RES     
   10682 HW2         13.5684    18.9920    24.1840 HW2           1 RES     
   10683 OW          32.5044    25.6110    26.9920 OW            1 RES     
   10684 HW1         32.2064    24.6590    26.9410 HW1           1 RES     
   10685 HW2         33.4714    25.6730    26.7440 HW2           1 RES     
   10686 OW          19.0484    40.7790    23.2480 OW            1 RES     
   10687 HW1         20.0414    40.6750    23.2250 HW1           1 RES     
   10688 HW2         18.6714    40.2290    23.9940 HW2           1 RES     
   10689 OW          19.4134    23.0030    13.3250 OW            1 RES     
   10690 HW1         19.3754    23.3240    14.2700 HW1           1 RES     
   10691 HW2         19.0344    23.7030    12.7190 HW2           1 RES     
   10692 OW          23.2944    25.2460     7.7310 OW            1 RES     
   10693 HW1         22.9394    24.4540     8.2260 HW1           1 RES     
   10694 HW2         22.7804    25.3670     6.8820 HW2           1 RES     
   10695 OW          38.1864    41.3790    18.8230 OW            1 RES     
   10696 HW1         38.7724    40.8070    19.3970 HW1           1 RES     
   10697 HW2         38.6114    42.2760    18.7020 HW2           1 RES     
   10698 OW           2.8204    22.2980    13.6010 OW            1 RES     
   10699 HW1          2.4564    22.3190    14.5310 HW1           1 RES     
   10700 HW2          2.7524    23.2090    13.1950 HW2           1 RES     
   10701 OW          14.0134    43.5600    26.3070 OW            1 RES     
   10702 HW1         13.5834    44.1250    27.0110 HW1           1 RES     
   10703 HW2         14.1304    44.0990    25.4720 HW2           1 RES     
   10704 OW          50.8464    37.5700    15.5240 OW            1 RES     
   10705 HW1         50.0074    37.2470    15.0890 HW1           1 RES     
   10706 HW2         51.3444    38.1630    14.8910 HW2           1 RES     
   10707 OW          52.5344    31.4100    16.9990 OW            1 RES     
   10708 HW1         52.4064    32.3020    16.5650 HW1           1 RES     
   10709 HW2         52.4314    30.6880    16.3150 HW2           1 RES     
   10710 OW          14.7424    23.2050    19.4200 OW            1 RES     
   10711 HW1         14.0934    22.4450    19.4360 HW1           1 RES     
   10712 HW2         14.2424    24.0710    19.4420 HW2           1 RES     
   10713 OW          24.0614    28.7670    18.2040 OW            1 RES     
   10714 HW1         23.4234    29.5360    18.2160 HW1           1 RES     
   10715 HW2         23.5634    27.9180    18.3840 HW2           1 RES     
   10716 OW          48.6394    12.2790    18.4840 OW            1 RES     
   10717 HW1         47.6794    12.1670    18.2300 HW1           1 RES     
   10718 HW2         48.9164    13.2280    18.3330 HW2           1 RES     
   10719 OW          38.0534    41.2990     6.6770 OW            1 RES     
   10720 HW1         38.9284    41.6170     7.0410 HW1           1 RES     
   10721 HW2         37.8364    41.8030     5.8410 HW2           1 RES     
   10722 OW          24.3614    26.6960    20.5140 OW            1 RES     
   10723 HW1         24.3954    26.2740    19.6090 HW1           1 RES     
   10724 HW2         25.0684    26.2950    21.0970 HW2           1 RES     
   10725 OW          16.4364    18.2110     0.3520 OW            1 RES     
   10726 HW1         15.8804    17.4540     0.0100 HW1           1 RES     
   10727 HW2         15.8704    18.8120     0.9180 HW2           1 RES     
   10728 OW          21.7094    28.6340    16.7880 OW            1 RES     
   10729 HW1         22.1904    27.9730    16.2110 HW1           1 RES     
   10730 HW2         20.8594    28.9110    16.3400 HW2           1 RES     
   10731 OW          44.7204    40.0280     6.8360 OW            1 RES     
   10732 HW1         45.1514    39.9330     7.7320 HW1           1 RES     
   10733 HW2         45.3974    39.8590     6.1190 HW2           1 RES     
   10734 OW          29.4624    16.2560    16.0200 OW            1 RES     
   10735 HW1         28.7374    16.4720    16.6730 HW1           1 RES     
   10736 HW2         29.3384    15.3250    15.6790 HW2           1 RES     
   10737 OW           3.3694    26.4030    21.2650 OW            1 RES     
   10738 HW1          2.4734    26.7110    21.5820 HW1           1 RES     
   10739 HW2          3.5764    25.5100    21.6650 HW2           1 RES     
   10740 OW          35.5614     3.3150     3.1130 OW            1 RES     
   10741 HW1         35.9234     2.5600     2.5670 HW1           1 RES     
   10742 HW2         36.2964     3.9620     3.3170 HW2           1 RES     
   10743 OW          44.7144    13.3700     4.3690 OW            1 RES     
   10744 HW1         44.5854    12.8920     3.5010 HW1           1 RES     
   10745 HW2         44.7884    14.3540     4.2000 HW2           1 RES     
   10746 OW           2.6854    45.0290     4.3020 OW            1 RES     
   10747 HW1          2.4754    45.9770     4.0640 HW1           1 RES     
   10748 HW2          2.6354    44.9150     5.2950 HW2           1 RES     
   10749 OW          32.8874    46.2120     0.8850 OW            1 RES     
   10750 HW1         33.1834    46.1990     1.8390 HW1           1 RES     
   10751 HW2         32.0684    45.6460     0.7820 HW2           1 RES     
   10752 OW          48.1154    47.2420     3.6520 OW            1 RES     
   10753 HW1         48.3994    47.6280     4.5290 HW1           1 RES     
   10754 HW2         47.3384    46.6280     3.7940 HW2           1 RES     
   10755 OW          45.4474    29.7740     3.6910 OW            1 RES     
   10756 HW1         46.3194    29.7940     3.2040 HW1           1 RES     
   10757 HW2         45.1504    30.7100     3.8830 HW2           1 RES     
   10758 OW          27.7104    23.7420    17.0680 OW            1 RES     
   10759 HW1         27.6664    23.7270    18.0660 HW1           1 RES     
   10760 HW2         28.5634    24.1770    16.7770 HW2           1 RES     
   10761 OW           7.2154     3.0960    26.2340 OW            1 RES     
   10762 HW1          6.6934     3.3910    27.0330 HW1           1 RES     
   10763 HW2          6.7324     2.3500    25.7760 HW2           1 RES     
   10764 OW           2.3604    13.4590     1.1480 OW            1 RES     
   10765 HW1          2.1334    13.0100     0.2850 HW1           1 RES     
   10766 HW2          2.9024    14.2800     0.9650 HW2           1 RES     
   10767 OW          45.5134    27.5180     3.6930 OW            1 RES     
   10768 HW1         46.4194    27.5830     3.2760 HW1           1 RES     
   10769 HW2         45.2004    26.5680     3.6650 HW2           1 RES     
   10770 OW          25.6484    33.7340    11.7240 OW            1 RES     
   10771 HW1         26.3394    34.4170    11.4880 HW1           1 RES     
   10772 HW2         24.7364    34.1290    11.6120 HW2           1 RES     
   10773 OW          25.6764     5.4720    25.5250 OW            1 RES     
   10774 HW1         24.8284     5.6900    26.0070 HW1           1 RES     
   10775 HW2         25.5294     4.6790    24.9330 HW2           1 RES     
   10776 OW          21.3984    13.1070    17.7280 OW            1 RES     
   10777 HW1         20.6564    13.3750    18.3420 HW1           1 RES     
   10778 HW2         21.2444    12.1720    17.4070 HW2           1 RES     
   10779 OW          14.6414    14.3230     9.4140 OW            1 RES     
   10780 HW1         14.5284    13.9410    10.3300 HW1           1 RES     
   10781 HW2         14.2374    13.7030     8.7410 HW2           1 RES     
   10782 OW           6.0464    11.8270    21.1300 OW            1 RES     
   10783 HW1          5.7384    12.7770    21.1620 HW1           1 RES     
   10784 HW2          5.2534    11.2190    21.1090 HW2           1 RES     
   10785 OW          10.5874    39.5010     0.8160 OW            1 RES     
   10786 HW1         10.4704    38.6870     0.2480 HW1           1 RES     
   10787 HW2         10.9834    39.2400     1.6960 HW2           1 RES     
   10788 OW           9.9444    38.6840     4.6190 OW            1 RES     
   10789 HW1          9.2384    39.1950     5.1090 HW1           1 RES     
   10790 HW2         10.8134    39.1750     4.6770 HW2           1 RES     
   10791 OW          51.2214    48.9670    10.1780 OW            1 RES     
   10792 HW1         51.8304    48.6000    10.8800 HW1           1 RES     
   10793 HW2         51.3824    48.4900     9.3130 HW2           1 RES     
   10794 OW          28.8764    36.9870    18.9950 OW            1 RES     
   10795 HW1         28.2994    37.4530    18.3250 HW1           1 RES     
   10796 HW2         29.5534    37.6290    19.3550 HW2           1 RES     
   10797 OW          47.2864    38.9040    26.5870 OW            1 RES     
   10798 HW1         48.2004    38.6310    26.8860 HW1           1 RES     
   10799 HW2         46.8294    38.1250    26.1570 HW2           1 RES     
   10800 OW          23.3294    17.0210    12.8570 OW            1 RES     
   10801 HW1         24.2574    17.3890    12.9030 HW1           1 RES     
   10802 HW2         22.6704    17.7730    12.8900 HW2           1 RES     
   10803 OW           8.7084     7.7930    14.7760 OW            1 RES     
   10804 HW1          9.2374     7.2510    14.1240 HW1           1 RES     
   10805 HW2          9.2664     7.9820    15.5840 HW2           1 RES     
   10806 OW          43.6304    30.1470     8.5480 OW            1 RES     
   10807 HW1         43.6364    29.1480     8.5480 HW1           1 RES     
   10808 HW2         42.6874    30.4760     8.4990 HW2           1 RES     
   10809 OW           4.2934    24.6070    24.7560 OW            1 RES     
   10810 HW1          5.2634    24.5690    24.9940 HW1           1 RES     
   10811 HW2          4.0574    25.5320    24.4590 HW2           1 RES     
   10812 OW           2.7234    48.1020    17.6160 OW            1 RES     
   10813 HW1          2.9714    48.8640    18.2130 HW1           1 RES     
   10814 HW2          1.9304    47.6240    17.9960 HW2           1 RES     
   10815 OW          35.7654    33.7900    12.6450 OW            1 RES     
   10816 HW1         35.1154    34.5420    12.7540 HW1           1 RES     
   10817 HW2         35.2664    32.9250    12.5850 HW2           1 RES     
   10818 OW          46.1724    37.3360     3.0670 OW            1 RES     
   10819 HW1         45.9254    36.5420     3.6230 HW1           1 RES     
   10820 HW2         47.1444    37.5380     3.1860 HW2           1 RES     
   10821 OW          55.2044    23.0300    13.7560 OW            1 RES     
   10822 HW1         56.1784    23.1370    13.5580 HW1           1 RES     
   10823 HW2         54.7524    23.9210    13.6980 HW2           1 RES     
   10824 OW           9.8094    11.5640    14.9010 OW            1 RES     
   10825 HW1         10.2484    12.4300    14.6630 HW1           1 RES     
   10826 HW2          8.8174    11.6870    14.9200 HW2           1 RES     
   10827 OW          40.6544    27.9500    19.7390 OW            1 RES     
   10828 HW1         41.1574    27.1820    20.1340 HW1           1 RES     
   10829 HW2         40.0944    27.6260    18.9760 HW2           1 RES     
   10830 OW           7.9044     7.0130    19.1210 OW            1 RES     
   10831 HW1          8.3054     7.5020    18.3470 HW1           1 RES     
   10832 HW2          7.0684     7.4780    19.4120 HW2           1 RES     
   10833 OW          29.4284     3.5840    25.4170 OW            1 RES     
   10834 HW1         30.2994     3.9270    25.7670 HW1           1 RES     
   10835 HW2         29.5804     2.7270    24.9250 HW2           1 RES     
   10836 OW          29.6274    44.9660    25.3770 OW            1 RES     
   10837 HW1         29.1674    45.8540    25.3600 HW1           1 RES     
   10838 HW2         28.9444    44.2360    25.3650 HW2           1 RES     
   10839 OW          50.6884    31.2130     5.6470 OW            1 RES     
   10840 HW1         50.6774    30.2280     5.8200 HW1           1 RES     
   10841 HW2         51.6344    31.5240     5.5510 HW2           1 RES     
   10842 OW          45.5904     7.5140    23.8440 OW            1 RES     
   10843 HW1         45.6034     8.4350    23.4560 HW1           1 RES     
   10844 HW2         45.0194     7.5050    24.6650 HW2           1 RES     
   10845 OW          35.5934    27.4700    25.5890 OW            1 RES     
   10846 HW1         36.0874    28.3380    25.5660 HW1           1 RES     
   10847 HW2         34.7434    27.5820    26.1050 HW2           1 RES     
   10848 OW          15.5794     6.4910    17.7980 OW            1 RES     
   10849 HW1         14.7294     6.4960    17.2730 HW1           1 RES     
   10850 HW2         15.5144     5.8160    18.5330 HW2           1 RES     
   10851 OW          24.0124    19.2750    17.5090 OW            1 RES     
   10852 HW1         23.4714    20.1150    17.4750 HW1           1 RES     
   10853 HW2         23.4004    18.4870    17.5860 HW2           1 RES     
   10854 OW          10.3274    22.0330    27.2690 OW            1 RES     
   10855 HW1         10.4584    21.0960    26.9470 HW1           1 RES     
   10856 HW2          9.3884    22.3220    27.0830 HW2           1 RES     
   10857 OW          28.7204    20.6220     5.0540 OW            1 RES     
   10858 HW1         28.8304    21.5940     5.2580 HW1           1 RES     
   10859 HW2         27.7614    20.3630     5.1680 HW2           1 RES     
   10860 OW          19.0724    32.8360     2.1100 OW            1 RES     
   10861 HW1         18.6914    33.6830     2.4790 HW1           1 RES     
   10862 HW2         20.0644    32.9280     2.0200 HW2           1 RES     
   10863 OW           7.6914    14.9560    13.5070 OW            1 RES     
   10864 HW1          8.6024    14.5560    13.4050 HW1           1 RES     
   10865 HW2          7.4724    15.0440    14.4780 HW2           1 RES     
   10866 OW          40.8044    48.2310    18.9170 OW            1 RES     
   10867 HW1         41.2374    47.6200    19.5790 HW1           1 RES     
   10868 HW2         41.4124    49.0020    18.7260 HW2           1 RES     
   10869 OW          48.0274    30.1920    13.2290 OW            1 RES     
   10870 HW1         47.9914    29.2610    13.5910 HW1           1 RES     
   10871 HW2         48.5704    30.2040    12.3900 HW2           1 RES     
   10872 OW          54.1674    33.4510     9.4590 OW            1 RES     
   10873 HW1         53.2284    33.6310     9.7510 HW1           1 RES     
   10874 HW2         54.4434    34.1320     8.7810 HW2           1 RES     
   10875 OW          51.7984    31.4780    10.5530 OW            1 RES     
   10876 HW1         51.6454    30.5090    10.3620 HW1           1 RES     
   10877 HW2         52.7634    31.6270    10.7730 HW2           1 RES     
   10878 OW          54.0184     1.9560     5.4570 OW            1 RES     
   10879 HW1         53.9964     1.0710     5.9200 HW1           1 RES     
   10880 HW2         54.0054     2.6890     6.1370 HW2           1 RES     
   10881 OW          10.5654    13.9340    18.1660 OW            1 RES     
   10882 HW1         11.0604    14.6050    18.7170 HW1           1 RES     
   10883 HW2         11.1574    13.6060    17.4280 HW2           1 RES     
   10884 OW          31.9644    32.5980     2.3400 OW            1 RES     
   10885 HW1         32.1474    31.6960     1.9500 HW1           1 RES     
   10886 HW2         32.5224    33.2830     1.8720 HW2           1 RES     
   10887 OW          32.9294    47.4100    10.6810 OW            1 RES     
   10888 HW1         33.6884    47.6860    10.0930 HW1           1 RES     
   10889 HW2         33.0804    46.4760    11.0070 HW2           1 RES     
   10890 OW          20.1894     8.6120     4.5780 OW            1 RES     
   10891 HW1         20.8584     9.2050     4.1320 HW1           1 RES     
   10892 HW2         19.4054     8.4780     3.9720 HW2           1 RES     
   10893 OW          19.4404    40.7260    13.2740 OW            1 RES     
   10894 HW1         19.8594    40.4470    14.1380 HW1           1 RES     
   10895 HW2         20.0504    41.3590    12.7970 HW2           1 RES     
   10896 OW          44.2354    32.8140    10.2740 OW            1 RES     
   10897 HW1         43.4344    32.6070     9.7140 HW1           1 RES     
   10898 HW2         44.9844    33.1200     9.6850 HW2           1 RES     
   10899 OW          22.1884    35.9160     3.4980 OW            1 RES     
   10900 HW1         21.2004    36.0620     3.5070 HW1           1 RES     
   10901 HW2         22.4624    35.5420     2.6120 HW2           1 RES     
   10902 OW          11.7954    48.0870    16.0050 OW            1 RES     
   10903 HW1         11.7284    47.9720    15.0150 HW1           1 RES     
   10904 HW2         11.0414    47.6030    16.4490 HW2           1 RES     
   10905 OW          29.6804    13.9520    24.6420 OW            1 RES     
   10906 HW1         29.9254    14.8560    24.9920 HW1           1 RES     
   10907 HW2         30.3454    13.6710    23.9490 HW2           1 RES     
   10908 OW          50.1454     1.7960    20.2510 OW            1 RES     
   10909 HW1         49.7404     0.8830    20.2280 HW1           1 RES     
   10910 HW2         49.4224     2.4840    20.1800 HW2           1 RES     
   10911 OW          34.3124    27.1550    18.9190 OW            1 RES     
   10912 HW1         33.5064    27.7370    19.0210 HW1           1 RES     
   10913 HW2         35.1254    27.7260    18.8050 HW2           1 RES     
   10914 OW          25.6004    10.6780     5.3860 OW            1 RES     
   10915 HW1         24.7574    11.2110     5.3220 HW1           1 RES     
   10916 HW2         26.3594    11.2810     5.6340 HW2           1 RES     
   10917 OW           1.6124     1.1260     9.4830 OW            1 RES     
   10918 HW1          2.4404     0.7650     9.9100 HW1           1 RES     
   10919 HW2          1.5204     2.0980     9.7020 HW2           1 RES     
   10920 OW          38.2914    16.8710     2.8410 OW            1 RES     
   10921 HW1         37.3854    16.4920     3.0280 HW1           1 RES     
   10922 HW2         38.7694    17.0330     3.7040 HW2           1 RES     
   10923 OW          25.5054    14.1000    24.9120 OW            1 RES     
   10924 HW1         25.2694    15.0710    24.9210 HW1           1 RES     
   10925 HW2         24.8794    13.6090    24.3050 HW2           1 RES     
   10926 OW           1.7254    19.6040     9.9110 OW            1 RES     
   10927 HW1          0.8284    19.1700     9.8320 HW1           1 RES     
   10928 HW2          2.4344    18.8990     9.9450 HW2           1 RES     
   10929 OW          43.0854    26.1180    10.5050 OW            1 RES     
   10930 HW1         44.0024    26.4050    10.2290 HW1           1 RES     
   10931 HW2         43.0814    25.1330    10.6780 HW2           1 RES     
   10932 OW          34.0804    14.1400     4.5090 OW            1 RES     
   10933 HW1         34.8284    13.4780     4.4730 HW1           1 RES     
   10934 HW2         34.1804    14.7980     3.7630 HW2           1 RES     
   10935 OW          10.7674    21.2030     8.3070 OW            1 RES     
   10936 HW1          9.7924    21.2410     8.0900 HW1           1 RES     
   10937 HW2         11.0244    20.2620     8.5300 HW2           1 RES     
   10938 OW          34.3174    44.7380    11.9480 OW            1 RES     
   10939 HW1         34.6154    44.3750    12.8300 HW1           1 RES     
   10940 HW2         34.1264    43.9810    11.3230 HW2           1 RES     
   10941 OW           4.5414     2.7830    16.8520 OW            1 RES     
   10942 HW1          3.7274     2.9980    17.3900 HW1           1 RES     
   10943 HW2          5.2194     2.3350    17.4360 HW2           1 RES     
   10944 OW          17.5464    39.5730     7.5450 OW            1 RES     
   10945 HW1         18.1364    40.2380     8.0010 HW1           1 RES     
   10946 HW2         16.8894    40.0520     6.9630 HW2           1 RES     
   10947 OW          21.4654    30.7490    17.5380 OW            1 RES     
   10948 HW1         20.6154    30.7600    18.0650 HW1           1 RES     
   10949 HW2         21.8924    31.6520    17.5740 HW2           1 RES     
   10950 OW          44.5494    42.5360    18.6630 OW            1 RES     
   10951 HW1         44.6244    41.5910    18.9790 HW1           1 RES     
   10952 HW2         45.1834    42.6870    17.9050 HW2           1 RES     
   10953 OW          52.7794     7.6610    21.0140 OW            1 RES     
   10954 HW1         52.3444     8.4710    20.6230 HW1           1 RES     
   10955 HW2         53.4104     7.2660    20.3460 HW2           1 RES     
   10956 OW          37.8414    20.1190    17.4770 OW            1 RES     
   10957 HW1         38.3844    20.7640    16.9390 HW1           1 RES     
   10958 HW2         36.9174    20.0640    17.0990 HW2           1 RES     
   10959 OW           1.4664     5.5530    12.3870 OW            1 RES     
   10960 HW1          1.3334     5.0060    13.2130 HW1           1 RES     
   10961 HW2          0.6164     5.5730    11.8590 HW2           1 RES     
   10962 OW          50.4154    46.1650    10.7980 OW            1 RES     
   10963 HW1         49.6774    46.7300    10.4310 HW1           1 RES     
   10964 HW2         51.0484    45.9240    10.0630 HW2           1 RES     
   10965 OW          10.3254    43.8600    11.3200 OW            1 RES     
   10966 HW1         10.3024    42.8840    11.1040 HW1           1 RES     
   10967 HW2          9.4094    44.2470    11.2130 HW2           1 RES     
   10968 OW          51.5154    12.6930     5.8020 OW            1 RES     
   10969 HW1         52.4084    13.1370     5.8700 HW1           1 RES     
   10970 HW2         51.6024    11.7290     6.0560 HW2           1 RES     
   10971 OW          38.7014    11.9500    15.0600 OW            1 RES     
   10972 HW1         38.1564    12.6740    14.6370 HW1           1 RES     
   10973 HW2         39.2954    11.5340    14.3710 HW2           1 RES     
   10974 OW          44.8514    21.2340    11.8160 OW            1 RES     
   10975 HW1         44.8104    21.3460    10.8240 HW1           1 RES     
   10976 HW2         44.1194    21.7660    12.2430 HW2           1 RES     
   10977 OW          32.9864    47.2390    23.4160 OW            1 RES     
   10978 HW1         32.1954    46.7980    22.9930 HW1           1 RES     
   10979 HW2         33.2824    46.7040    24.2070 HW2           1 RES     
   10980 OW           0.0514    32.0740    15.7180 OW            1 RES     
   10981 HW1          0.4004    32.8200    15.1520 HW1           1 RES     
   10982 HW2          0.7644    31.7750    16.3530 HW2           1 RES     
   10983 OW          55.4694    19.6720     2.0590 OW            1 RES     
   10984 HW1         56.4114    19.9770     1.9260 HW1           1 RES     
   10985 HW2         54.8544    20.4600     2.0200 HW2           1 RES     
   10986 OW          53.4334    17.2590    14.0540 OW            1 RES     
   10987 HW1         53.6824    16.6120    14.7750 HW1           1 RES     
   10988 HW2         53.6274    16.8540    13.1610 HW2           1 RES     
   10989 OW          21.5204    35.1750    19.0690 OW            1 RES     
   10990 HW1         20.5534    35.4030    18.9660 HW1           1 RES     
   10991 HW2         21.6274    34.1810    19.1040 HW2           1 RES     
   10992 OW          51.9444    21.2820    14.2330 OW            1 RES     
   10993 HW1         52.2674    20.7470    15.0130 HW1           1 RES     
   10994 HW2         51.7454    22.2170    14.5290 HW2           1 RES     
   10995 OW          52.1824    17.0340     7.9980 OW            1 RES     
   10996 HW1         52.6084    16.1330     8.0620 HW1           1 RES     
   10997 HW2         51.1874    16.9340     8.0030 HW2           1 RES     
   10998 OW          29.5384    34.7540    17.7670 OW            1 RES     
   10999 HW1         30.0974    35.5630    17.5870 HW1           1 RES     
   11000 HW2         29.7974    34.3600    18.6490 HW2           1 RES     
   11001 OW          12.7164    19.1970    15.1670 OW            1 RES     
   11002 HW1         12.9064    18.8610    14.2450 HW1           1 RES     
   11003 HW2         13.5784    19.3640    15.6460 HW2           1 RES     
   11004 OW          34.0244    41.4150    19.2050 OW            1 RES     
   11005 HW1         33.8534    42.3840    19.3820 HW1           1 RES     
   11006 HW2         34.7004    41.3240    18.4740 HW2           1 RES     
   11007 OW          12.2094     4.8740    23.9670 OW            1 RES     
   11008 HW1         12.5444     4.9120    24.9080 HW1           1 RES     
   11009 HW2         12.9824     4.7650    23.3420 HW2           1 RES     
   11010 OW          51.4784    11.7170     3.7060 OW            1 RES     
   11011 HW1         52.4004    11.4850     3.3980 HW1           1 RES     
   11012 HW2         51.0184    10.8930     4.0360 HW2           1 RES     
   11013 OW          19.7074     8.1250    14.0800 OW            1 RES     
   11014 HW1         20.1774     7.3700    14.5360 HW1           1 RES     
   11015 HW2         18.7204     8.0290    14.2090 HW2           1 RES     
   11016 OW          10.9954    36.9960    23.4690 OW            1 RES     
   11017 HW1         11.4324    36.1030    23.5720 HW1           1 RES     
   11018 HW2         10.0134    36.8730    23.3270 HW2           1 RES     
   11019 OW          46.8984    27.2500     7.8770 OW            1 RES     
   11020 HW1         45.9164    27.1880     7.7040 HW1           1 RES     
   11021 HW2         47.2234    26.3910     8.2710 HW2           1 RES     
   11022 OW           0.1124    32.2980     7.1580 OW            1 RES     
   11023 HW1          0.8824    32.2500     7.7930 HW1           1 RES     
   11024 HW2          0.0104    33.2360     6.8270 HW2           1 RES     
   11025 OW          24.9254     0.5120    16.6880 OW            1 RES     
   11026 HW1         25.0744     1.4980    16.7560 HW1           1 RES     
   11027 HW2         24.5024     0.2980    15.8080 HW2           1 RES     
   11028 OW          49.3704     5.6170    15.8790 OW            1 RES     
   11029 HW1         49.6484     4.6860    15.6430 HW1           1 RES     
   11030 HW2         48.4084     5.6180    16.1540 HW2           1 RES     
   11031 OW          46.4064     7.5070    11.3160 OW            1 RES     
   11032 HW1         47.2434     7.2180    11.7800 HW1           1 RES     
   11033 HW2         45.6194     7.3390    11.9100 HW2           1 RES     
   11034 OW          56.9834    21.8480     0.4600 OW            1 RES     
   11035 HW1         55.9974    22.0050     0.4900 HW1           1 RES     
   11036 HW2         57.1654    20.9360     0.0940 HW2           1 RES     
   11037 OW          12.4494    16.8230    11.3880 OW            1 RES     
   11038 HW1         11.5814    16.5020    11.7650 HW1           1 RES     
   11039 HW2         12.4074    17.8120    11.2480 HW2           1 RES     
   11040 OW          17.1464     1.4210     7.2800 OW            1 RES     
   11041 HW1         18.1184     1.4630     7.0490 HW1           1 RES     
   11042 HW2         16.7674     2.3460     7.2970 HW2           1 RES     
   11043 OW          28.0004    42.9090    13.1110 OW            1 RES     
   11044 HW1         27.3454    43.5990    12.8060 HW1           1 RES     
   11045 HW2         28.8774    43.3460    13.3110 HW2           1 RES     
   11046 OW           4.0644    40.8910    20.2590 OW            1 RES     
   11047 HW1          4.1824    41.8430    20.5370 HW1           1 RES     
   11048 HW2          4.3474    40.2870    21.0050 HW2           1 RES     
   11049 OW          51.6694    12.4310    11.3070 OW            1 RES     
   11050 HW1         52.5594    12.8100    11.5550 HW1           1 RES     
   11051 HW2         51.7344    11.4340    11.2510 HW2           1 RES     
   11052 OW          19.1314    45.3620    22.4870 OW            1 RES     
   11053 HW1         19.9884    45.8110    22.7390 HW1           1 RES     
   11054 HW2         18.5584    46.0020    21.9750 HW2           1 RES     
   11055 OW          42.6094     9.4450     3.5080 OW            1 RES     
   11056 HW1         43.5824     9.4050     3.2870 HW1           1 RES     
   11057 HW2         42.2234    10.3020     3.1650 HW2           1 RES     
   11058 OW          32.7924    23.7100     2.1690 OW            1 RES     
   11059 HW1         32.0524    24.3400     1.9360 HW1           1 RES     
   11060 HW2         33.4654    24.1810     2.7390 HW2           1 RES     
   11061 OW          43.8834    24.3580    16.6300 OW            1 RES     
   11062 HW1         43.2964    25.1670    16.5940 HW1           1 RES     
   11063 HW2         43.3164    23.5340    16.6230 HW2           1 RES     
   11064 OW          46.0094    16.6440     9.2990 OW            1 RES     
   11065 HW1         45.2694    16.5420     8.6350 HW1           1 RES     
   11066 HW2         46.3024    17.6000     9.3300 HW2           1 RES     
   11067 OW          51.1174    18.2550     3.8870 OW            1 RES     
   11068 HW1         51.4634    17.9500     3.0010 HW1           1 RES     
   11069 HW2         50.8514    17.4600     4.4330 HW2           1 RES     
   11070 OW          17.8954    44.8930     7.9770 OW            1 RES     
   11071 HW1         17.1024    45.1760     7.4390 HW1           1 RES     
   11072 HW2         17.8024    43.9290     8.2260 HW2           1 RES     
   11073 OW          46.9724    40.6460    12.6280 OW            1 RES     
   11074 HW1         47.6894    41.3210    12.4570 HW1           1 RES     
   11075 HW2         46.6924    40.6930    13.5870 HW2           1 RES     
   11076 OW          38.2474    32.3670    24.0210 OW            1 RES     
   11077 HW1         38.4884    31.7140    24.7390 HW1           1 RES     
   11078 HW2         38.2434    31.9030    23.1350 HW2           1 RES     
   11079 OW          50.7534    19.2180    18.6510 OW            1 RES     
   11080 HW1         51.1634    20.1150    18.4850 HW1           1 RES     
   11081 HW2         51.0244    18.8900    19.5560 HW2           1 RES     
   11082 OW          48.6744    20.5880    11.0170 OW            1 RES     
   11083 HW1         47.9944    19.8990    10.7680 HW1           1 RES     
   11084 HW2         48.6094    21.3640    10.3890 HW2           1 RES     
   11085 OW          29.2534     1.4230    19.6890 OW            1 RES     
   11086 HW1         28.4914     0.7770    19.7260 HW1           1 RES     
   11087 HW2         28.9024     2.3570    19.7490 HW2           1 RES     
   11088 OW          16.4974    20.7830     5.7690 OW            1 RES     
   11089 HW1         15.7754    20.4210     5.1800 HW1           1 RES     
   11090 HW2         16.7234    20.1100     6.4730 HW2           1 RES     
   11091 OW          39.4264     3.4330     7.5440 OW            1 RES     
   11092 HW1         38.7524     4.0970     7.2200 HW1           1 RES     
   11093 HW2         40.1134     3.2820     6.8330 HW2           1 RES     
   11094 OW          48.3614    43.5390    16.9870 OW            1 RES     
   11095 HW1         48.8624    42.7900    16.5540 HW1           1 RES     
   11096 HW2         48.9234    44.3670    16.9750 HW2           1 RES     
   11097 OW          37.2294     3.4170    19.2690 OW            1 RES     
   11098 HW1         36.5204     4.1160    19.1810 HW1           1 RES     
   11099 HW2         37.0984     2.7180    18.5660 HW2           1 RES     
   11100 OW          47.6634    34.7780     2.4630 OW            1 RES     
   11101 HW1         47.9824    34.8160     1.5170 HW1           1 RES     
   11102 HW2         46.7884    34.2940     2.5020 HW2           1 RES     
   11103 OW          23.2134    37.4480     8.6410 OW            1 RES     
   11104 HW1         22.5984    37.4310     7.8540 HW1           1 RES     
   11105 HW2         23.1244    36.5930     9.1520 HW2           1 RES     
   11106 OW          48.0984     5.3370    23.3220 OW            1 RES     
   11107 HW1         48.2824     4.8980    24.2000 HW1           1 RES     
   11108 HW2         47.1104     5.4310    23.1970 HW2           1 RES     
   11109 OW          50.1224    26.8400    22.0160 OW            1 RES     
   11110 HW1         49.7844    26.1190    22.6190 HW1           1 RES     
   11111 HW2         50.4474    27.6100    22.5670 HW2           1 RES     
   11112 OW          15.0654     3.5160    23.6690 OW            1 RES     
   11113 HW1         15.3314     3.9740    24.5170 HW1           1 RES     
   11114 HW2         15.1774     2.5280    23.7740 HW2           1 RES     
   11115 OW          39.3374    14.1650     1.5610 OW            1 RES     
   11116 HW1         38.4444    14.5970     1.6860 HW1           1 RES     
   11117 HW2         39.8384    14.1760     2.4260 HW2           1 RES     
   11118 OW          31.9094    18.5960    25.1090 OW            1 RES     
   11119 HW1         32.3864    19.3900    24.7340 HW1           1 RES     
   11120 HW2         32.1784    17.7760    24.6030 HW2           1 RES     
   11121 OW           3.9834     3.9520    19.7860 OW            1 RES     
   11122 HW1          3.2264     3.3410    19.5560 HW1           1 RES     
   11123 HW2          3.9884     4.1190    20.7720 HW2           1 RES     
   11124 OW          10.5224     1.5990    20.6380 OW            1 RES     
   11125 HW1          9.5234     1.5810    20.6320 HW1           1 RES     
   11126 HW2         10.8394     2.5470    20.6610 HW2           1 RES     
   11127 OW          37.5904     4.8020    21.6130 OW            1 RES     
   11128 HW1         37.7024     5.7920    21.6970 HW1           1 RES     
   11129 HW2         38.4804     4.3560    21.7120 HW2           1 RES     
   11130 OW           0.5804    40.2260    19.1530 OW            1 RES     
   11131 HW1          0.5804    40.9810    18.4990 HW1           1 RES     
   11132 HW2          0.3584    40.5730    20.0640 HW2           1 RES     
   11133 OW          17.1244     9.4210    21.8510 OW            1 RES     
   11134 HW1         17.2604     8.5110    21.4620 HW1           1 RES     
   11135 HW2         16.2234     9.7660    21.5870 HW2           1 RES     
   11136 OW          45.7354     0.4800     4.6760 OW            1 RES     
   11137 HW1         46.3624     0.9800     5.2730 HW1           1 RES     
   11138 HW2         45.0554     1.1110     4.3030 HW2           1 RES     
   11139 OW          43.0404    37.5140     4.8060 OW            1 RES     
   11140 HW1         43.5954    36.8200     5.2640 HW1           1 RES     
   11141 HW2         42.2544    37.7460     5.3800 HW2           1 RES     
   11142 OW           8.8024     3.3740     4.7630 OW            1 RES     
   11143 HW1          8.4664     4.2830     4.5230 HW1           1 RES     
   11144 HW2          8.6664     3.2150     5.7410 HW2           1 RES     
   11145 OW           5.3704    19.3070    25.0440 OW            1 RES     
   11146 HW1          6.0994    18.7220    24.6920 HW1           1 RES     
   11147 HW2          5.7044    20.2470    25.1180 HW2           1 RES     
   11148 OW          22.2904    32.5680     0.0020 OW            1 RES     
   11149 HW1         23.2694    32.4200     0.1440 HW1           1 RES     
   11150 HW2         21.7774    31.8080     0.4020 HW2           1 RES     
   11151 OW          47.2344     2.4390    14.0600 OW            1 RES     
   11152 HW1         46.5774     1.7790    14.4230 HW1           1 RES     
   11153 HW2         47.5594     2.1290    13.1660 HW2           1 RES     
   11154 OW          19.5164    31.2600    20.1490 OW            1 RES     
   11155 HW1         19.4004    31.3140    21.1410 HW1           1 RES     
   11156 HW2         18.6474    31.0020    19.7260 HW2           1 RES     
   11157 OW          18.4154    32.6310     8.7590 OW            1 RES     
   11158 HW1         19.3544    32.3300     8.6000 HW1           1 RES     
   11159 HW2         17.7824    32.0030     8.3060 HW2           1 RES     
   11160 OW           1.9614    23.1150     8.6960 OW            1 RES     
   11161 HW1          0.9664    23.1860     8.7550 HW1           1 RES     
   11162 HW2          2.3744    23.9870     8.9590 HW2           1 RES     
   11163 OW           9.8974    30.4290     6.9420 OW            1 RES     
   11164 HW1          9.9104    31.4170     7.0900 HW1           1 RES     
   11165 HW2         10.8314    30.1010     6.7950 HW2           1 RES     
   11166 OW          11.4784    35.1810     5.0630 OW            1 RES     
   11167 HW1         12.3394    34.9280     5.5040 HW1           1 RES     
   11168 HW2         10.9334    35.7390     5.6880 HW2           1 RES     
   11169 OW          15.6394    11.8590     2.7480 OW            1 RES     
   11170 HW1         14.6644    12.0480     2.8630 HW1           1 RES     
   11171 HW2         16.0954    11.9070     3.6370 HW2           1 RES     
   11172 OW           0.1574    44.6300     3.8600 OW            1 RES     
   11173 HW1          0.8314    43.8920     3.8670 HW1           1 RES     
   11174 HW2          0.4974    45.3880     3.3030 HW2           1 RES     
   11175 OW          55.7854    17.7700    21.1460 OW            1 RES     
   11176 HW1         55.4994    18.1890    22.0070 HW1           1 RES     
   11177 HW2         56.0874    18.4830    20.5120 HW2           1 RES     
   11178 OW          22.5364     8.1530     9.3900 OW            1 RES     
   11179 HW1         23.1344     8.9420     9.5230 HW1           1 RES     
   11180 HW2         21.6534     8.4600     9.0340 HW2           1 RES     
   11181 OW          55.6304    21.0750    19.6120 OW            1 RES     
   11182 HW1         55.3774    21.9660    19.9860 HW1           1 RES     
   11183 HW2         56.3214    21.1960    18.8990 HW2           1 RES     
   11184 OW          11.8234     3.7570    26.7290 OW            1 RES     
   11185 HW1         11.2954     3.0550    27.2050 HW1           1 RES     
   11186 HW2         12.7494     3.7910    27.1050 HW2           1 RES     
   11187 OW          22.9524    41.3970     0.6470 OW            1 RES     
   11188 HW1         23.0904    42.2400     0.1280 HW1           1 RES     
   11189 HW2         23.8364    41.0490     0.9590 HW2           1 RES     
   11190 OW           4.3484    16.8710     1.2510 OW            1 RES     
   11191 HW1          3.4634    16.7690     0.7990 HW1           1 RES     
   11192 HW2          4.8054    15.9830     1.2950 HW2           1 RES     
   11193 OW          56.9534    32.4030    10.2670 OW            1 RES     
   11194 HW1         56.0134    32.2570    10.5720 HW1           1 RES     
   11195 HW2         57.0334    33.3090     9.8500 HW2           1 RES     
   11196 OW          53.0174    25.6920    22.9930 OW            1 RES     
   11197 HW1         52.6254    26.5480    23.3280 HW1           1 RES     
   11198 HW2         52.2874    25.1060    22.6410 HW2           1 RES     
   11199 OW          31.5544    24.5860     8.6090 OW            1 RES     
   11200 HW1         31.5754    25.3020     9.3060 HW1           1 RES     
   11201 HW2         30.6044    24.3610     8.3900 HW2           1 RES     
   11202 OW          20.0244    27.8180    24.6000 OW            1 RES     
   11203 HW1         19.8804    28.4710    23.8560 HW1           1 RES     
   11204 HW2         19.9234    26.8860    24.2500 HW2           1 RES     
   11205 OW          54.8654     8.7000    27.2370 OW            1 RES     
   11206 HW1         55.0154     7.7320    27.0350 HW1           1 RES     
   11207 HW2         55.7404     9.1830    27.2230 HW2           1 RES     
   11208 OW           5.1054    39.7590    14.4230 OW            1 RES     
   11209 HW1          5.8864    40.2700    14.0660 HW1           1 RES     
   11210 HW2          4.8484    39.0440    13.7720 HW2           1 RES     
   11211 OW           0.7354     0.3350     2.0900 OW            1 RES     
   11212 HW1          1.0074     1.2860     2.2330 HW1           1 RES     
   11213 HW2          0.1994     0.0200     2.8730 HW2           1 RES     
   11214 OW          27.8264    41.1000     9.0020 OW            1 RES     
   11215 HW1         27.0334    40.5680     8.7080 HW1           1 RES     
   11216 HW2         28.1374    40.7710     9.8940 HW2           1 RES     
   11217 OW          50.4484    11.3960    26.0180 OW            1 RES     
   11218 HW1         50.3994    10.3980    25.9860 HW1           1 RES     
   11219 HW2         49.7584    11.7840    25.4060 HW2           1 RES     
   11220 OW          35.0684    28.4290     0.0120 OW            1 RES     
   11221 HW1         34.2874    28.7350     0.5560 HW1           1 RES     
   11222 HW2         35.3184    27.4980     0.2800 HW2           1 RES     
   11223 OW           6.6314     9.1280    10.1620 OW            1 RES     
   11224 HW1          5.8634     9.4410    10.7190 HW1           1 RES     
   11225 HW2          7.4534     9.0710    10.7290 HW2           1 RES     
   11226 OW           4.7474    39.8210     8.6340 OW            1 RES     
   11227 HW1          3.8164    39.8880     8.9910 HW1           1 RES     
   11228 HW2          5.3984    39.8310     9.3930 HW2           1 RES     
   11229 OW          11.3024    37.0590     7.5390 OW            1 RES     
   11230 HW1         10.4594    36.5700     7.7560 HW1           1 RES     
   11231 HW2         11.1264    38.0440     7.5380 HW2           1 RES     
   11232 OW          34.8014    20.3560    23.5340 OW            1 RES     
   11233 HW1         34.3104    19.4890    23.4620 HW1           1 RES     
   11234 HW2         35.7764    20.1780    23.6700 HW2           1 RES     
   11235 OW          13.0244    19.9180    18.1930 OW            1 RES     
   11236 HW1         12.2044    20.4730    18.0550 HW1           1 RES     
   11237 HW2         12.9174    19.0410    17.7240 HW2           1 RES     
   11238 OW          45.8194     4.0670     5.6000 OW            1 RES     
   11239 HW1         46.1634     4.2210     6.5250 HW1           1 RES     
   11240 HW2         45.6794     3.0880     5.4550 HW2           1 RES     
   11241 OW          39.9144    11.6940    25.6310 OW            1 RES     
   11242 HW1         39.7784    11.5110    24.6580 HW1           1 RES     
   11243 HW2         40.3174    10.8900    26.0690 HW2           1 RES     
   11244 OW          35.6134     6.4920    10.2540 OW            1 RES     
   11245 HW1         35.5334     6.5960     9.2630 HW1           1 RES     
   11246 HW2         34.7504     6.7530    10.6870 HW2           1 RES     
   11247 OW          28.2714     9.5270     7.8670 OW            1 RES     
   11248 HW1         27.2754     9.4650     7.8250 HW1           1 RES     
   11249 HW2         28.6624     8.6080     7.9230 HW2           1 RES     
   11250 OW          19.6674    27.0980    14.3330 OW            1 RES     
   11251 HW1         18.6754    27.1570    14.4320 HW1           1 RES     
   11252 HW2         19.9334    26.1440    14.1950 HW2           1 RES     
   11253 OW          48.7224    35.7130     4.4600 OW            1 RES     
   11254 HW1         49.4394    35.0960     4.1380 HW1           1 RES     
   11255 HW2         48.9294    36.6470     4.1680 HW2           1 RES     
   11256 OW          18.6504    22.8720     6.6040 OW            1 RES     
   11257 HW1         18.3164    23.3980     5.8220 HW1           1 RES     
   11258 HW2         19.6464    22.7990     6.5570 HW2           1 RES     
   11259 OW          35.7014    38.5320    20.3780 OW            1 RES     
   11260 HW1         36.1834    38.7420    19.5290 HW1           1 RES     
   11261 HW2         36.1874    38.9430    21.1490 HW2           1 RES     
   11262 OW          19.5394    25.6570    17.3340 OW            1 RES     
   11263 HW1         18.6064    25.8820    17.0570 HW1           1 RES     
   11264 HW2         20.0154    26.4920    17.6140 HW2           1 RES     
   11265 OW          26.0124    38.7260     2.7430 OW            1 RES     
   11266 HW1         26.9754    38.9920     2.7290 HW1           1 RES     
   11267 HW2         25.4404    39.5460     2.7730 HW2           1 RES     
   11268 OW          52.1594    13.1640     8.5210 OW            1 RES     
   11269 HW1         52.3834    13.9480     7.9420 HW1           1 RES     
   11270 HW2         52.7074    13.1990     9.3570 HW2           1 RES     
   11271 OW          24.4494    35.1000    13.9570 OW            1 RES     
   11272 HW1         24.3394    34.1150    13.8340 HW1           1 RES     
   11273 HW2         23.5544    35.5220    14.0990 HW2           1 RES     
   11274 OW           5.6294    22.6080    14.6540 OW            1 RES     
   11275 HW1          5.9114    22.0750    13.8570 HW1           1 RES     
   11276 HW2          5.8754    23.5680    14.5180 HW2           1 RES     
   11277 OW           3.3514    20.4290    11.7750 OW            1 RES     
   11278 HW1          2.4514    20.5480    12.1920 HW1           1 RES     
   11279 HW2          3.5954    19.4590    11.7790 HW2           1 RES     
   11280 OW          54.2544    43.7310    24.1550 OW            1 RES     
   11281 HW1         53.8854    42.8230    24.3490 HW1           1 RES     
   11282 HW2         54.5124    44.1760    25.0130 HW2           1 RES     
   11283 OW          35.9864    44.6590    20.0870 OW            1 RES     
   11284 HW1         36.5014    45.5150    20.0820 HW1           1 RES     
   11285 HW2         35.0064    44.8580    20.0680 HW2           1 RES     
   11286 OW          21.5564     4.5320     2.0520 OW            1 RES     
   11287 HW1         21.6564     3.5470     1.9130 HW1           1 RES     
   11288 HW2         20.6154     4.7380     2.3180 HW2           1 RES     
   11289 OW          41.3904    43.9970    17.7700 OW            1 RES     
   11290 HW1         41.9924    43.2460    17.5030 HW1           1 RES     
   11291 HW2         40.5564    43.9690    17.2190 HW2           1 RES     
   11292 OW          18.8924    37.3700     6.5940 OW            1 RES     
   11293 HW1         19.5474    36.8240     6.0730 HW1           1 RES     
   11294 HW2         19.0764    38.3420     6.4480 HW2           1 RES     
   11295 OW          10.7764    25.6690     8.8260 OW            1 RES     
   11296 HW1         11.3314    26.3860     8.4060 HW1           1 RES     
   11297 HW2          9.8184    25.7930     8.5660 HW2           1 RES     
   11298 OW          29.5014    35.8450    14.9520 OW            1 RES     
   11299 HW1         29.8334    36.7060    15.3360 HW1           1 RES     
   11300 HW2         30.0364    35.0860    15.3220 HW2           1 RES     
   11301 OW          29.4234    32.6870     3.1380 OW            1 RES     
   11302 HW1         29.7994    31.8450     2.7530 HW1           1 RES     
   11303 HW2         29.4804    32.6520     4.1360 HW2           1 RES     
   11304 OW          19.2164    34.5610     7.4290 OW            1 RES     
   11305 HW1         19.8514    35.3050     7.6350 HW1           1 RES     
   11306 HW2         18.3144    34.9400     7.2180 HW2           1 RES     
   11307 OW          55.0214    18.3150     8.2010 OW            1 RES     
   11308 HW1         55.9814    18.4080     7.9380 HW1           1 RES     
   11309 HW2         54.9544    17.7550     9.0270 HW2           1 RES     
   11310 OW          29.1604    16.8370    19.0150 OW            1 RES     
   11311 HW1         29.6994    16.5160    19.7930 HW1           1 RES     
   11312 HW2         28.4184    16.1900    18.8330 HW2           1 RES     
   11313 OW           3.5084    33.1090    15.1800 OW            1 RES     
   11314 HW1          4.0544    32.3970    14.7400 HW1           1 RES     
   11315 HW2          2.5894    32.7600    15.3650 HW2           1 RES     
   11316 OW          10.0834    22.3160    19.9530 OW            1 RES     
   11317 HW1         10.0794    21.8430    20.8330 HW1           1 RES     
   11318 HW2          9.4674    23.1040    19.9940 HW2           1 RES     
   11319 OW          31.7914    28.2970     6.4070 OW            1 RES     
   11320 HW1         30.8124    28.1060     6.4520 HW1           1 RES     
   11321 HW2         32.2754    27.4850     6.0810 HW2           1 RES     
   11322 OW          33.2914     6.5710    25.9190 OW            1 RES     
   11323 HW1         32.4894     6.2360    25.4250 HW1           1 RES     
   11324 HW2         33.5824     5.8850    26.5860 HW2           1 RES     
   11325 OW           7.1894    45.0720    12.9280 OW            1 RES     
   11326 HW1          8.0894    45.3680    12.6090 HW1           1 RES     
   11327 HW2          6.6084    45.8720    13.0780 HW2           1 RES     
   11328 OW          43.2564    40.0190    20.2650 OW            1 RES     
   11329 HW1         42.7934    39.3750    19.6570 HW1           1 RES     
   11330 HW2         43.9694    39.5410    20.7790 HW2           1 RES     
   11331 OW          31.9774    21.3760     2.6680 OW            1 RES     
   11332 HW1         31.6924    21.7780     1.7980 HW1           1 RES     
   11333 HW2         31.7414    21.9970     3.4150 HW2           1 RES     
   11334 OW           2.2584     0.0060    12.5730 OW            1 RES     
   11335 HW1          2.0154     0.5510    13.3740 HW1           1 RES     
   11336 HW2          1.5884     0.1620    11.8470 HW2           1 RES     
   11337 OW          47.3834    34.2070    13.9930 OW            1 RES     
   11338 HW1         46.6924    33.5000    14.1420 HW1           1 RES     
   11339 HW2         46.9734    35.1090    14.1270 HW2           1 RES     
   11340 OW          17.5774    40.8170    21.5900 OW            1 RES     
   11341 HW1         16.6194    40.8890    21.8640 HW1           1 RES     
   11342 HW2         17.8124    41.5830    20.9920 HW2           1 RES     
   11343 OW          53.8864     1.8380     0.9820 OW            1 RES     
   11344 HW1         53.9654     1.3920     0.0910 HW1           1 RES     
   11345 HW2         54.7524     2.2830     1.2100 HW2           1 RES     
   11346 OW          49.8904    27.7940     5.4260 OW            1 RES     
   11347 HW1         49.2584    28.5570     5.5540 HW1           1 RES     
   11348 HW2         49.3734    26.9420     5.3420 HW2           1 RES     
   11349 OW          21.4914    27.1950    20.3530 OW            1 RES     
   11350 HW1         21.2994    26.2150    20.3690 HW1           1 RES     
   11351 HW2         20.6604    27.6950    20.1080 HW2           1 RES     
   11352 OW          14.6114    40.6820     6.2340 OW            1 RES     
   11353 HW1         14.4694    41.2110     5.3980 HW1           1 RES     
   11354 HW2         13.8814    40.8850     6.8860 HW2           1 RES     
   11355 OW          10.6854    26.8150    25.6190 OW            1 RES     
   11356 HW1         10.4544    26.4490    24.7180 HW1           1 RES     
   11357 HW2         10.0944    26.3990    26.3100 HW2           1 RES     
   11358 OW           3.5694    12.2580     4.3340 OW            1 RES     
   11359 HW1          2.6614    11.8690     4.1820 HW1           1 RES     
   11360 HW2          4.2644    11.5580     4.1670 HW2           1 RES     
   11361 OW          15.6994    32.9780     3.3170 OW            1 RES     
   11362 HW1         16.6784    33.1790     3.2960 HW1           1 RES     
   11363 HW2         15.5624    31.9870     3.3290 HW2           1 RES     
   11364 OW           4.4764    32.5150    25.5170 OW            1 RES     
   11365 HW1          5.4254    32.7050    25.7660 HW1           1 RES     
   11366 HW2          4.1414    31.7360    26.0470 HW2           1 RES     
   11367 OW          22.8214     9.2020     6.9060 OW            1 RES     
   11368 HW1         23.6724     8.7190     6.7010 HW1           1 RES     
   11369 HW2         22.0574     8.7370     6.4590 HW2           1 RES     
   11370 OW          50.4904    24.5290     3.1970 OW            1 RES     
   11371 HW1         49.7814    25.2330     3.1880 HW1           1 RES     
   11372 HW2         50.0994    23.6650     3.5130 HW2           1 RES     
   11373 OW          20.7144    14.3670    23.5000 OW            1 RES     
   11374 HW1         21.5464    13.8180    23.5720 HW1           1 RES     
   11375 HW2         20.7584    15.1270    24.1490 HW2           1 RES     
   11376 OW          47.5114    30.0290    20.5350 OW            1 RES     
   11377 HW1         47.7994    29.1020    20.7710 HW1           1 RES     
   11378 HW2         46.5144    30.0590    20.4570 HW2           1 RES     
   11379 OW          36.6054    35.9760    21.4970 OW            1 RES     
   11380 HW1         37.2294    36.7550    21.5530 HW1           1 RES     
   11381 HW2         37.0904    35.1860    21.1200 HW2           1 RES     
   11382 OW          44.2574    16.4370    20.3380 OW            1 RES     
   11383 HW1         43.7594    15.7600    20.8790 HW1           1 RES     
   11384 HW2         44.4224    17.2520    20.8940 HW2           1 RES     
   11385 OW          25.1794     5.9470    10.8190 OW            1 RES     
   11386 HW1         25.7454     6.2590    11.5810 HW1           1 RES     
   11387 HW2         25.3964     4.9930    10.6100 HW2           1 RES     
   11388 OW           7.3264    45.4240    25.8140 OW            1 RES     
   11389 HW1          6.4764    44.9630    26.0690 HW1           1 RES     
   11390 HW2          8.0164    45.2660    26.5200 HW2           1 RES     
   11391 OW          29.5324     7.5980    25.6600 OW            1 RES     
   11392 HW1         28.9824     7.4920    24.8320 HW1           1 RES     
   11393 HW2         30.1374     8.3880    25.5590 HW2           1 RES     
   11394 OW          41.5994    44.0160    22.1490 OW            1 RES     
   11395 HW1         42.5194    44.2280    22.4770 HW1           1 RES     
   11396 HW2         41.1174    43.4720    22.8370 HW2           1 RES     
   11397 OW          52.4694    35.3700    20.7500 OW            1 RES     
   11398 HW1         52.2014    34.7310    21.4710 HW1           1 RES     
   11399 HW2         51.7844    36.0940    20.6730 HW2           1 RES     
   11400 OW          30.4654    43.7130     0.0120 OW            1 RES     
   11401 HW1         29.5844    44.1090     0.2670 HW1           1 RES     
   11402 HW2         31.0044    43.5390     0.8370 HW2           1 RES     
   11403 OW          32.8764    47.3990    20.6840 OW            1 RES     
   11404 HW1         32.7324    46.4270    20.4980 HW1           1 RES     
   11405 HW2         33.8104    47.5410    21.0130 HW2           1 RES     
   11406 OW           4.6964    11.8830     1.1000 OW            1 RES     
   11407 HW1          3.7104    11.7200     1.1200 HW1           1 RES     
   11408 HW2          4.8784    12.8480     1.2890 HW2           1 RES     
   11409 OW          38.5434    12.8510    10.1760 OW            1 RES     
   11410 HW1         39.4134    13.3350    10.2620 HW1           1 RES     
   11411 HW2         37.9504    13.3410     9.5360 HW2           1 RES     
   11412 OW          13.9594    29.8070    13.1500 OW            1 RES     
   11413 HW1         13.5814    30.3370    13.9080 HW1           1 RES     
   11414 HW2         14.9564    29.8870    13.1510 HW2           1 RES     
   11415 OW          43.0044    44.7290    19.6270 OW            1 RES     
   11416 HW1         42.7174    43.7990    19.8530 HW1           1 RES     
   11417 HW2         43.8374    44.6970    19.0750 HW2           1 RES     
   11418 OW          39.8394    36.8130    20.1180 OW            1 RES     
   11419 HW1         39.3814    35.9260    20.1340 HW1           1 RES     
   11420 HW2         39.1554    37.5420    20.0900 HW2           1 RES     
   11421 OW          34.5324    11.4760    20.8860 OW            1 RES     
   11422 HW1         33.5724    11.7350    20.7890 HW1           1 RES     
   11423 HW2         35.0934    12.2990    20.9670 HW2           1 RES     
   11424 OW          54.4234    48.9030    14.5760 OW            1 RES     
   11425 HW1         53.7934    48.2530    15.0000 HW1           1 RES     
   11426 HW2         54.1764    49.0290    13.6150 HW2           1 RES     
   11427 OW          20.2834     2.7800     8.9860 OW            1 RES     
   11428 HW1         19.5954     3.4330     9.3020 HW1           1 RES     
   11429 HW2         19.8824     2.1820     8.2920 HW2           1 RES     
   11430 OW          49.3964    26.3630    15.3700 OW            1 RES     
   11431 HW1         48.5624    25.8330    15.5170 HW1           1 RES     
   11432 HW2         50.1514    25.7450    15.1520 HW2           1 RES     
   11433 OW          51.2124    10.0230    23.5930 OW            1 RES     
   11434 HW1         51.3004     9.2960    24.2720 HW1           1 RES     
   11435 HW2         50.3084    10.4440    23.6700 HW2           1 RES     
   11436 OW          27.2214    16.0980    14.6800 OW            1 RES     
   11437 HW1         27.0704    15.3580    15.3340 HW1           1 RES     
   11438 HW2         26.3584    16.5720    14.5060 HW2           1 RES     
   11439 OW          45.7574    22.1090     4.5980 OW            1 RES     
   11440 HW1         46.0624    21.9250     5.5320 HW1           1 RES     
   11441 HW2         45.2814    21.3060     4.2390 HW2           1 RES     
   11442 OW           4.2924     8.6200     8.0580 OW            1 RES     
   11443 HW1          4.2664     9.0810     7.1720 HW1           1 RES     
   11444 HW2          4.9294     9.0960     8.6640 HW2           1 RES     
   11445 OW          53.6664    19.9530     3.9730 OW            1 RES     
   11446 HW1         53.8234    20.9370     3.9040 HW1           1 RES     
   11447 HW2         52.7094    19.7840     4.2110 HW2           1 RES     
   11448 OW          54.7824    40.5180    19.3370 OW            1 RES     
   11449 HW1         54.2104    40.3620    20.1420 HW1           1 RES     
   11450 HW2         55.0174    41.4880    19.2790 HW2           1 RES     
   11451 OW          49.8404    36.8100    25.6820 OW            1 RES     
   11452 HW1         49.5694    36.8870    26.6410 HW1           1 RES     
   11453 HW2         49.2344    36.1650    25.2150 HW2           1 RES     
   11454 OW          25.8584    47.8620     5.6160 OW            1 RES     
   11455 HW1         26.3814    48.2630     4.8640 HW1           1 RES     
   11456 HW2         26.4864    47.4550     6.2790 HW2           1 RES     
   11457 OW          15.1174     9.7220     6.6460 OW            1 RES     
   11458 HW1         15.6424     9.1370     7.2630 HW1           1 RES     
   11459 HW2         14.4434     9.1700     6.1550 HW2           1 RES     
   11460 OW          56.4314     1.6570    22.3290 OW            1 RES     
   11461 HW1         57.2314     2.2020    22.0790 HW1           1 RES     
   11462 HW2         55.7494     2.2450    22.7650 HW2           1 RES     
   11463 OW          40.1324     8.5630    25.7200 OW            1 RES     
   11464 HW1         39.3254     8.6960    25.1460 HW1           1 RES     
   11465 HW2         39.9644     7.8180    26.3650 HW2           1 RES     
   11466 OW          53.5584    28.6340    10.7570 OW            1 RES     
   11467 HW1         54.0464    29.4990    10.8690 HW1           1 RES     
   11468 HW2         54.2174    27.8850    10.6900 HW2           1 RES     
   11469 OW           6.0964    43.7540    11.5440 OW            1 RES     
   11470 HW1          5.5214    42.9600    11.7390 HW1           1 RES     
   11471 HW2          6.6934    43.5520    10.7680 HW2           1 RES     
   11472 OW          53.2374    46.8440     2.8340 OW            1 RES     
   11473 HW1         54.0654    47.3900     2.9550 HW1           1 RES     
   11474 HW2         52.9444    46.8890     1.8780 HW2           1 RES     
   11475 OW          48.1884    31.5790     3.3930 OW            1 RES     
   11476 HW1         47.2124    31.7940     3.4180 HW1           1 RES     
   11477 HW2         48.7154    32.4280     3.3450 HW2           1 RES     
   11478 OW          50.5964    42.9930     7.4260 OW            1 RES     
   11479 HW1         51.4754    43.4150     7.6460 HW1           1 RES     
   11480 HW2         50.5014    42.9160     6.4330 HW2           1 RES     
   11481 OW          48.9824    20.3900    17.9680 OW            1 RES     
   11482 HW1         49.1484    21.1520    17.3430 HW1           1 RES     
   11483 HW2         48.9704    20.7260    18.9100 HW2           1 RES     
   11484 OW          57.1974     7.1000     8.9620 OW            1 RES     
   11485 HW1         56.6314     6.2790     9.0210 HW1           1 RES     
   11486 HW2         56.6104     7.9090     8.9250 HW2           1 RES     
   11487 OW          42.4674    24.8670     7.8970 OW            1 RES     
   11488 HW1         41.6694    25.3660     7.5610 HW1           1 RES     
   11489 HW2         43.1484    25.5150     8.2380 HW2           1 RES     
   11490 OW           7.7214    37.8160    25.2230 OW            1 RES     
   11491 HW1          8.3094    37.0090    25.2290 HW1           1 RES     
   11492 HW2          8.2454    38.6090    24.9110 HW2           1 RES     
   11493 OW          43.3594    31.9240    25.5460 OW            1 RES     
   11494 HW1         43.2094    32.8750    25.2750 HW1           1 RES     
   11495 HW2         44.3024    31.6630    25.3400 HW2           1 RES     
   11496 OW          45.2704    41.9170    15.6780 OW            1 RES     
   11497 HW1         44.9154    40.9840    15.6620 HW1           1 RES     
   11498 HW2         46.2704    41.8950    15.6420 HW2           1 RES     
   11499 OW          51.0944     4.5230    26.5730 OW            1 RES     
   11500 HW1         50.4174     4.3100    27.2760 HW1           1 RES     
   11501 HW2         51.4664     5.4380    26.7330 HW2           1 RES     
   11502 OW          10.9194     7.6750    19.2670 OW            1 RES     
   11503 HW1         10.2344     6.9550    19.3710 HW1           1 RES     
   11504 HW2         11.0384     8.1510    20.1390 HW2           1 RES     
   11505 OW           9.6984    42.8990    21.1980 OW            1 RES     
   11506 HW1         10.1824    42.0350    21.0590 HW1           1 RES     
   11507 HW2         10.3614    43.6430    21.2850 HW2           1 RES     
   11508 OW          33.5454    44.0910    17.2890 OW            1 RES     
   11509 HW1         32.7124    43.5870    17.0600 HW1           1 RES     
   11510 HW2         34.2854    43.4450    17.4780 HW2           1 RES     
   11511 OW          53.5724    10.9070    25.8400 OW            1 RES     
   11512 HW1         52.7094    10.4040    25.8100 HW1           1 RES     
   11513 HW2         53.4204    11.8090    26.2440 HW2           1 RES     
   11514 OW           8.6294    10.3800    17.0470 OW            1 RES     
   11515 HW1          8.6004     9.3870    17.1600 HW1           1 RES     
   11516 HW2          9.5784    10.6920    17.0770 HW2           1 RES     
   11517 OW          32.0524    12.3190     3.5460 OW            1 RES     
   11518 HW1         32.3014    12.2530     2.5810 HW1           1 RES     
   11519 HW2         31.5754    13.1830     3.7090 HW2           1 RES     
   11520 OW          21.8444    23.8370    19.0830 OW            1 RES     
   11521 HW1         20.8584    23.9880    19.0330 HW1           1 RES     
   11522 HW2         22.0254    22.9300    19.4640 HW2           1 RES     
   11523 OW          13.7074    34.7290     8.6490 OW            1 RES     
   11524 HW1         13.7904    33.9300     9.2430 HW1           1 RES     
   11525 HW2         13.3984    35.5140     9.1860 HW2           1 RES     
   11526 OW          50.2384    36.1100    23.0100 OW            1 RES     
   11527 HW1         50.3554    35.1560    22.7370 HW1           1 RES     
   11528 HW2         49.5514    36.5430    22.4250 HW2           1 RES     
   11529 OW          18.6284    46.9230     9.6240 OW            1 RES     
   11530 HW1         17.6614    46.7780     9.4200 HW1           1 RES     
   11531 HW2         18.9264    46.2630    10.3140 HW2           1 RES     
   11532 OW          48.8854    11.6770    11.4310 OW            1 RES     
   11533 HW1         49.5664    11.4710    10.7300 HW1           1 RES     
   11534 HW2         48.0114    11.8920    10.9950 HW2           1 RES     
   11535 OW           1.7134    14.7570     7.4420 OW            1 RES     
   11536 HW1          1.1424    14.6250     6.6330 HW1           1 RES     
   11537 HW2          1.3534    15.5180     7.9830 HW2           1 RES     
   11538 OW          37.7654    16.8720     9.1950 OW            1 RES     
   11539 HW1         37.7014    16.4740    10.1100 HW1           1 RES     
   11540 HW2         38.7074    17.1610     9.0220 HW2           1 RES     
   11541 OW           2.6874     7.1880     6.2520 OW            1 RES     
   11542 HW1          1.8424     6.7020     6.4720 HW1           1 RES     
   11543 HW2          2.4814     8.1500     6.0720 HW2           1 RES     
   11544 OW          24.9894    29.5280    24.9410 OW            1 RES     
   11545 HW1         24.4904    29.4980    25.8060 HW1           1 RES     
   11546 HW2         25.6884    30.2430    24.9830 HW2           1 RES     
   11547 OW          31.5094     0.9180    26.3620 OW            1 RES     
   11548 HW1         32.4794     1.0860    26.1900 HW1           1 RES     
   11549 HW2         31.2534     0.0270    25.9890 HW2           1 RES     
   11550 OW          26.3674     6.7710    14.0050 OW            1 RES     
   11551 HW1         26.3104     7.7670    13.9510 HW1           1 RES     
   11552 HW2         25.4804     6.3720    13.7720 HW2           1 RES     
   11553 OW           3.5154     6.1770    12.9790 OW            1 RES     
   11554 HW1          3.0654     6.1920    13.8710 HW1           1 RES     
   11555 HW2          3.8294     7.0990    12.7480 HW2           1 RES     
   11556 OW          53.6844     1.4260     9.1710 OW            1 RES     
   11557 HW1         53.8684     1.1360     8.2320 HW1           1 RES     
   11558 HW2         53.9694     2.3780     9.2890 HW2           1 RES     
   11559 OW           7.1664    18.1750    13.8470 OW            1 RES     
   11560 HW1          8.0694    18.5870    13.7330 HW1           1 RES     
   11561 HW2          7.1994    17.2150    13.5690 HW2           1 RES     
   11562 OW           3.2554    37.2280     1.5050 OW            1 RES     
   11563 HW1          3.0724    36.5130     2.1800 HW1           1 RES     
   11564 HW2          2.6434    38.0020     1.6640 HW2           1 RES     
   11565 OW          27.7724    38.9450    13.4610 OW            1 RES     
   11566 HW1         27.4244    39.8530    13.6870 HW1           1 RES     
   11567 HW2         28.0354    38.9190    12.4960 HW2           1 RES     
   11568 OW          14.9894     2.1050     8.8740 OW            1 RES     
   11569 HW1         14.7384     1.1390     8.8170 HW1           1 RES     
   11570 HW2         14.2924     2.6020     9.3900 HW2           1 RES     
   11571 OW           1.3324    17.8120     2.3270 OW            1 RES     
   11572 HW1          1.3144    17.6390     1.3430 HW1           1 RES     
   11573 HW2          1.2824    16.9430     2.8200 HW2           1 RES     
   11574 OW          45.4524    30.6670     0.4630 OW            1 RES     
   11575 HW1         45.3714    30.8660     1.4390 HW1           1 RES     
   11576 HW2         45.2744    29.6950     0.3040 HW2           1 RES     
   11577 OW          50.6704    47.9020     6.6360 OW            1 RES     
   11578 HW1         49.7114    48.1830     6.6390 HW1           1 RES     
   11579 HW2         50.7684    47.0560     6.1120 HW2           1 RES     
   11580 OW           0.0004    46.8660     6.5280 OW            1 RES     
   11581 HW1          0.7144    46.1680     6.5700 HW1           1 RES     
   11582 HW2          0.0114    47.3010     5.6280 HW2           1 RES     
   11583 OW          33.3904     5.5400    12.5490 OW            1 RES     
   11584 HW1         33.7854     6.2470    13.1350 HW1           1 RES     
   11585 HW2         32.4264     5.7470    12.3810 HW2           1 RES     
   11586 OW          38.2974    32.6740    20.2340 OW            1 RES     
   11587 HW1         37.8894    32.1000    20.9430 HW1           1 RES     
   11588 HW2         39.1574    33.0600    20.5700 HW2           1 RES     
   11589 OW          22.4184    15.4940    21.2940 OW            1 RES     
   11590 HW1         21.9114    16.0260    20.6170 HW1           1 RES     
   11591 HW2         22.5404    14.5590    20.9610 HW2           1 RES     
   11592 OW           4.2324    36.2040    15.0590 OW            1 RES     
   11593 HW1          3.6514    36.9820    14.8190 HW1           1 RES     
   11594 HW2          3.6624    35.4470    15.3780 HW2           1 RES     
   11595 OW          57.2324    34.0520     7.6420 OW            1 RES     
   11596 HW1         56.8164    33.1880     7.3610 HW1           1 RES     
   11597 HW2         56.7904    34.8080     7.1600 HW2           1 RES     
   11598 OW          32.1664    15.1230    13.4040 OW            1 RES     
   11599 HW1         31.9384    14.9050    12.4560 HW1           1 RES     
   11600 HW2         33.1604    15.1250    13.5170 HW2           1 RES     
   11601 OW          17.0244    41.8670     5.4370 OW            1 RES     
   11602 HW1         16.7224    42.7020     5.8960 HW1           1 RES     
   11603 HW2         16.5274    41.7600     4.5760 HW2           1 RES     
   11604 OW          41.3624    22.5070     2.2360 OW            1 RES     
   11605 HW1         41.3684    23.4380     1.8740 HW1           1 RES     
   11606 HW2         40.7344    21.9440     1.6980 HW2           1 RES     
   11607 OW           4.6924     9.4660    19.8600 OW            1 RES     
   11608 HW1          5.3344     9.5400    19.0980 HW1           1 RES     
   11609 HW2          5.1474     9.0340    20.6390 HW2           1 RES     
   11610 OW          28.7304    19.6960    12.5710 OW            1 RES     
   11611 HW1         27.8344    19.9090    12.1840 HW1           1 RES     
   11612 HW2         29.3774    20.4230    12.3370 HW2           1 RES     
   11613 OW           8.9704    16.7280     4.5230 OW            1 RES     
   11614 HW1          9.9274    16.4430     4.4960 HW1           1 RES     
   11615 HW2          8.3804    15.9260     4.4200 HW2           1 RES     
   11616 OW          33.7744     8.6490    17.1460 OW            1 RES     
   11617 HW1         34.6354     9.0090    16.7880 HW1           1 RES     
   11618 HW2         33.1874     9.4070    17.4320 HW2           1 RES     
   11619 OW          26.3964    47.0450    26.4450 OW            1 RES     
   11620 HW1         27.3344    46.7010    26.4690 HW1           1 RES     
   11621 HW2         26.2094    47.5630    27.2790 HW2           1 RES     
   11622 OW          39.7394     2.7190    25.7350 OW            1 RES     
   11623 HW1         39.9994     3.5290    26.2580 HW1           1 RES     
   11624 HW2         40.5584     2.2920    25.3510 HW2           1 RES     
   11625 OW          17.5204    36.6730     3.7120 OW            1 RES     
   11626 HW1         17.7834    37.1350     4.5580 HW1           1 RES     
   11627 HW2         18.3414    36.3770     3.2240 HW2           1 RES     
   11628 OW          50.4024    31.3570    17.9710 OW            1 RES     
   11629 HW1         49.4524    31.0980    18.1440 HW1           1 RES     
   11630 HW2         51.0114    30.7550    18.4870 HW2           1 RES     
   11631 OW          10.1244    32.4540    11.8130 OW            1 RES     
   11632 HW1         10.3724    31.7200    11.1810 HW1           1 RES     
   11633 HW2          9.1464    32.6490    11.7300 HW2           1 RES     
   11634 OW          11.7734    15.5280     9.2850 OW            1 RES     
   11635 HW1         12.2464    16.3480     8.9650 HW1           1 RES     
   11636 HW2         12.4294    14.7790     9.3810 HW2           1 RES     
   11637 OW          26.7654     2.6370    13.5400 OW            1 RES     
   11638 HW1         26.8034     1.6590    13.7450 HW1           1 RES     
   11639 HW2         26.1554     2.7910    12.7620 HW2           1 RES     
   11640 OW          34.6344    17.2990    16.4880 OW            1 RES     
   11641 HW1         35.4344    16.7700    16.7690 HW1           1 RES     
   11642 HW2         34.9324    18.1380    16.0310 HW2           1 RES     
   11643 OW           1.7124     1.5110    21.3980 OW            1 RES     
   11644 HW1          0.8154     1.3440    21.8060 HW1           1 RES     
   11645 HW2          1.6034     2.0520    20.5630 HW2           1 RES     
   11646 OW          12.3924     4.8930    14.3490 OW            1 RES     
   11647 HW1         12.4954     5.7960    14.7660 HW1           1 RES     
   11648 HW2         12.9714     4.2350    14.8320 HW2           1 RES     
   11649 OW          28.6884     1.2840    27.1320 OW            1 RES     
   11650 HW1         28.7934     0.3030    26.9760 HW1           1 RES     
   11651 HW2         29.5564     1.7460    26.9470 HW2           1 RES     
   11652 OW          54.5004    41.4320    13.7660 OW            1 RES     
   11653 HW1         53.5394    41.6140    13.9720 HW1           1 RES     
   11654 HW2         54.6484    40.4440    13.7100 HW2           1 RES     
   11655 OW          28.2544    26.0050     1.5740 OW            1 RES     
   11656 HW1         28.7554    26.6530     1.0010 HW1           1 RES     
   11657 HW2         27.4574    26.4590     1.9720 HW2           1 RES     
   11658 OW          54.8914    22.7130     7.5340 OW            1 RES     
   11659 HW1         55.6254    22.4740     8.1680 HW1           1 RES     
   11660 HW2         54.1724    23.2050     8.0250 HW2           1 RES     
   11661 OW          45.7314    16.2600    27.2830 OW            1 RES     
   11662 HW1         46.6114    15.7870    27.2560 HW1           1 RES     
   11663 HW2         44.9904    15.5900    27.2390 HW2           1 RES     
   11664 OW          49.0824    23.7070    15.7880 OW            1 RES     
   11665 HW1         48.1184    23.4710    15.9060 HW1           1 RES     
   11666 HW2         49.6244    22.8700    15.7150 HW2           1 RES     
   11667 OW          32.8944    49.1680     2.8300 OW            1 RES     
   11668 HW1         33.8084    49.0610     3.2190 HW1           1 RES     
   11669 HW2         32.2114    48.8460     3.4860 HW2           1 RES     
   11670 OW           0.7254    37.0850    15.3470 OW            1 RES     
   11671 HW1          0.0064    36.8900    16.0140 HW1           1 RES     
   11672 HW2          1.3424    37.7800    15.7160 HW2           1 RES     
   11673 OW          50.8874    31.3380    24.7810 OW            1 RES     
   11674 HW1         51.1964    30.3900    24.7070 HW1           1 RES     
   11675 HW2         50.7974    31.5850    25.7460 HW2           1 RES     
   11676 OW          55.3184     4.9980    17.6940 OW            1 RES     
   11677 HW1         54.3264     4.8930    17.7520 HW1           1 RES     
   11678 HW2         55.5424     5.9550    17.5100 HW2           1 RES     
   11679 OW          37.6624     0.9500    26.3380 OW            1 RES     
   11680 HW1         37.1894     1.8300    26.3040 HW1           1 RES     
   11681 HW2         37.1964     0.2960    25.7420 HW2           1 RES     
   11682 OW          43.6234     4.9530    12.9460 OW            1 RES     
   11683 HW1         43.3934     4.0650    12.5490 HW1           1 RES     
   11684 HW2         44.3334     5.3920    12.3940 HW2           1 RES     
   11685 OW          12.7094    16.5990     6.8240 OW            1 RES     
   11686 HW1         13.5634    16.1030     6.6700 HW1           1 RES     
   11687 HW2         11.9384    15.9660     6.7500 HW2           1 RES     
   11688 OW           3.7674    15.9890     7.9050 OW            1 RES     
   11689 HW1          4.1544    16.5440     8.6400 HW1           1 RES     
   11690 HW2          3.3474    16.5860     7.2210 HW2           1 RES     
   11691 OW          38.9554     7.5320     8.9410 OW            1 RES     
   11692 HW1         39.2184     7.0940     9.8000 HW1           1 RES     
   11693 HW2         39.5604     8.3080     8.7630 HW2           1 RES     
   11694 OW          17.8594     0.0680    16.8550 OW            1 RES     
   11695 HW1         18.8404     0.1840    16.7020 HW1           1 RES     
   11696 HW2         17.3524     0.4690    16.0910 HW2           1 RES     
   11697 OW          55.1574    31.1740    15.9390 OW            1 RES     
   11698 HW1         54.6894    30.3930    16.3510 HW1           1 RES     
   11699 HW2         56.1014    30.9230    15.7240 HW2           1 RES     
   11700 OW           2.0714    27.1480     4.2500 OW            1 RES     
   11701 HW1          2.2794    26.1780     4.3690 HW1           1 RES     
   11702 HW2          2.0204    27.5910     5.1450 HW2           1 RES     
   11703 OW          35.0584     9.5280     2.3520 OW            1 RES     
   11704 HW1         35.2674    10.0020     1.4970 HW1           1 RES     
   11705 HW2         35.6454     8.7230     2.4400 HW2           1 RES     
   11706 OW          54.2294     9.3210    23.9760 OW            1 RES     
   11707 HW1         54.1294     8.3490    24.1840 HW1           1 RES     
   11708 HW2         55.1974     9.5360    23.8440 HW2           1 RES     
   11709 OW           8.5314    33.5660     5.8780 OW            1 RES     
   11710 HW1          9.0514    34.3630     5.5750 HW1           1 RES     
   11711 HW2          8.1874    33.7240     6.8040 HW2           1 RES     
   11712 OW          24.0614     2.6010    11.5010 OW            1 RES     
   11713 HW1         24.5644     2.8800    10.6850 HW1           1 RES     
   11714 HW2         23.5974     3.3950    11.8950 HW2           1 RES     
   11715 OW          23.6464    33.0890     5.8530 OW            1 RES     
   11716 HW1         24.2094    32.9070     5.0480 HW1           1 RES     
   11717 HW2         22.8234    33.5880     5.5800 HW2           1 RES     
   11718 OW          35.6174    43.8790    22.5900 OW            1 RES     
   11719 HW1         35.4284    42.9000    22.5210 HW1           1 RES     
   11720 HW2         36.4814    44.0190    23.0750 HW2           1 RES     
   11721 OW          34.9164    39.2850     1.5550 OW            1 RES     
   11722 HW1         35.3514    39.4600     2.4380 HW1           1 RES     
   11723 HW2         35.4624    38.6250     1.0390 HW2           1 RES     
   11724 OW          25.5464    11.7490     7.8790 OW            1 RES     
   11725 HW1         25.1394    12.5210     8.3640 HW1           1 RES     
   11726 HW2         26.4704    11.5860     8.2250 HW2           1 RES     
   11727 OW          26.0204    39.8660    25.0810 OW            1 RES     
   11728 HW1         25.9614    39.2210    25.8430 HW1           1 RES     
   11729 HW2         26.2124    39.3670    24.2360 HW2           1 RES     
   11730 OW          10.6484    44.0330     8.4700 OW            1 RES     
   11731 HW1         10.9324    43.4920     7.6790 HW1           1 RES     
   11732 HW2          9.9284    43.5460     8.9650 HW2           1 RES     
   11733 OW          31.5484    26.5970    14.3590 OW            1 RES     
   11734 HW1         32.0484    26.9460    15.1510 HW1           1 RES     
   11735 HW2         30.6614    26.2420    14.6540 HW2           1 RES     
   11736 OW          26.0634    43.6580     9.0920 OW            1 RES     
   11737 HW1         26.2124    42.9530     9.7840 HW1           1 RES     
   11738 HW2         25.1854    43.5020     8.6400 HW2           1 RES     
   11739 OW          12.9604     8.2360    25.7900 OW            1 RES     
   11740 HW1         13.4944     8.1780    26.6330 HW1           1 RES     
   11741 HW2         12.7864     9.1960    25.5700 HW2           1 RES     
   11742 OW           9.6904    17.3270     9.0830 OW            1 RES     
   11743 HW1          9.9724    18.2730     9.2360 HW1           1 RES     
   11744 HW2          9.9164    17.0580     8.1460 HW2           1 RES     
   11745 OW          14.4494     1.4430     1.9780 OW            1 RES     
   11746 HW1         15.2144     0.8240     1.8030 HW1           1 RES     
   11747 HW2         14.2864     2.0090     1.1700 HW2           1 RES     
   11748 OW          19.1014    33.3660    21.9200 OW            1 RES     
   11749 HW1         19.0274    34.2860    21.5370 HW1           1 RES     
   11750 HW2         19.9884    33.2610    22.3700 HW2           1 RES     
   11751 OW          56.5044    24.7730     9.3450 OW            1 RES     
   11752 HW1         55.6964    24.2140     9.5290 HW1           1 RES     
   11753 HW2         57.2344    24.1960     8.9780 HW2           1 RES     
   11754 OW           8.3144     6.5650     6.1430 OW            1 RES     
   11755 HW1          7.4294     6.1090     6.2350 HW1           1 RES     
   11756 HW2          9.0414     5.8790     6.1090 HW2           1 RES     
   11757 OW          46.9084    25.0470    13.4880 OW            1 RES     
   11758 HW1         46.9534    24.0480    13.5110 HW1           1 RES     
   11759 HW2         47.8344    25.4210    13.4370 HW2           1 RES     
   11760 OW          16.4504    28.9410     0.7850 OW            1 RES     
   11761 HW1         15.7854    29.6210     1.0920 HW1           1 RES     
   11762 HW2         15.9714    28.1070     0.5110 HW2           1 RES     
   11763 OW          13.3284    36.3490     2.0550 OW            1 RES     
   11764 HW1         12.6274    36.9990     2.3460 HW1           1 RES     
   11765 HW2         14.0084    36.8210     1.4920 HW2           1 RES     
   11766 OW          46.4964     1.9160    24.5680 OW            1 RES     
   11767 HW1         46.9714     2.7890    24.6780 HW1           1 RES     
   11768 HW2         45.5304     2.0850    24.3720 HW2           1 RES     
   11769 OW          43.0984    14.3900    18.0200 OW            1 RES     
   11770 HW1         43.7404    15.1550    17.9800 HW1           1 RES     
   11771 HW2         43.6044    13.5280    17.9910 HW2           1 RES     
   11772 OW          47.2994    39.6330    17.7980 OW            1 RES     
   11773 HW1         47.0034    38.7690    17.3910 HW1           1 RES     
   11774 HW2         46.5514    40.0230    18.3350 HW2           1 RES     
   11775 OW          30.1264    37.0570     4.7590 OW            1 RES     
   11776 HW1         30.6354    37.9080     4.6390 HW1           1 RES     
   11777 HW2         30.7594    36.2830     4.7370 HW2           1 RES     
   11778 OW          13.0494     1.9800    14.2900 OW            1 RES     
   11779 HW1         12.7674     2.3930    13.4250 HW1           1 RES     
   11780 HW2         13.7334     1.2710    14.1150 HW2           1 RES     
   11781 OW          47.4254    38.9390     8.6780 OW            1 RES     
   11782 HW1         48.2214    39.5310     8.8000 HW1           1 RES     
   11783 HW2         47.4494    38.5310     7.7650 HW2           1 RES     
   11784 OW           0.9934    17.9470    21.7220 OW            1 RES     
   11785 HW1          0.0024    17.9080    21.8410 HW1           1 RES     
   11786 HW2          1.4124    17.1380    22.1340 HW2           1 RES     
   11787 OW          53.5884    42.6200    26.5460 OW            1 RES     
   11788 HW1         52.9374    41.9220    26.2500 HW1           1 RES     
   11789 HW2         53.1844    43.1620    27.2830 HW2           1 RES     
   11790 OW          20.2624    27.6320    10.5100 OW            1 RES     
   11791 HW1         19.8444    28.4270    10.9490 HW1           1 RES     
   11792 HW2         20.5044    26.9560    11.2060 HW2           1 RES     
   11793 OW          53.8794    25.7370    11.3050 OW            1 RES     
   11794 HW1         52.9164    25.7920    11.0430 HW1           1 RES     
   11795 HW2         54.1784    24.7830    11.2820 HW2           1 RES     
   11796 OW          48.0884    30.4560    26.0760 OW            1 RES     
   11797 HW1         47.4344    31.0100    26.5910 HW1           1 RES     
   11798 HW2         47.9204    30.5660    25.0960 HW2           1 RES     
   11799 OW          16.3604    24.4270     5.7340 OW            1 RES     
   11800 HW1         16.1794    25.0560     4.9790 HW1           1 RES     
   11801 HW2         15.5064    23.9920     6.0190 HW2           1 RES     
   11802 OW           1.9484    12.3240    22.9680 OW            1 RES     
   11803 HW1          2.2064    13.1560    23.4580 HW1           1 RES     
   11804 HW2          1.0054    12.0800    23.1980 HW2           1 RES     
   11805 OW          35.7374    11.2760    25.9250 OW            1 RES     
   11806 HW1         35.5774    10.7440    25.0950 HW1           1 RES     
   11807 HW2         34.8614    11.5810    26.3000 HW2           1 RES     
   11808 OW          13.0814    34.8130    17.2710 OW            1 RES     
   11809 HW1         13.9874    34.4090    17.1500 HW1           1 RES     
   11810 HW2         13.0054    35.1950    18.1920 HW2           1 RES     
   11811 OW          22.0794    31.7090     4.1290 OW            1 RES     
   11812 HW1         22.7104    31.6260     3.3570 HW1           1 RES     
   11813 HW2         21.2164    32.1030     3.8130 HW2           1 RES     
   11814 OW          20.2664    23.2470     3.6790 OW            1 RES     
   11815 HW1         20.8984    23.7530     3.0920 HW1           1 RES     
   11816 HW2         19.5104    23.8450     3.9480 HW2           1 RES     
   11817 OW          22.9944     9.9120     4.8030 OW            1 RES     
   11818 HW1         23.1574     9.2750     4.0500 HW1           1 RES     
   11819 HW2         22.4684    10.6950     4.4700 HW2           1 RES     
   11820 OW          52.1814    42.2100    10.3850 OW            1 RES     
   11821 HW1         51.6244    42.7180     9.7290 HW1           1 RES     
   11822 HW2         52.1634    42.6750    11.2700 HW2           1 RES     
   11823 OW          34.3704    29.7750    19.9160 OW            1 RES     
   11824 HW1         33.5314    30.2870    19.7380 HW1           1 RES     
   11825 HW2         35.1614    30.3320    19.6610 HW2           1 RES     
   11826 OW          55.1194    36.7810    12.8090 OW            1 RES     
   11827 HW1         55.6374    35.9280    12.8730 HW1           1 RES     
   11828 HW2         54.2544    36.6110    12.3360 HW2           1 RES     
   11829 OW          54.8544    27.2640    17.0580 OW            1 RES     
   11830 HW1         54.7364    28.2300    16.8300 HW1           1 RES     
   11831 HW2         54.5454    26.7010    16.2920 HW2           1 RES     
   11832 OW          31.1894    44.4330    10.2000 OW            1 RES     
   11833 HW1         31.2544    45.2830    10.7210 HW1           1 RES     
   11834 HW2         30.2474    44.0980    10.2230 HW2           1 RES     
   11835 OW           7.9554    15.6350    23.4030 OW            1 RES     
   11836 HW1          7.2714    16.2180    22.9650 HW1           1 RES     
   11837 HW2          8.8694    15.9900    23.2070 HW2           1 RES     
   11838 OW          52.3104    12.7570     0.7280 OW            1 RES     
   11839 HW1         52.7034    11.9900     0.2210 HW1           1 RES     
   11840 HW2         51.3894    12.5170     1.0350 HW2           1 RES     
   11841 OW           3.2774    32.4650    12.1080 OW            1 RES     
   11842 HW1          2.3864    32.7020    12.4920 HW1           1 RES     
   11843 HW2          3.3504    31.4710    12.0200 HW2           1 RES     
   11844 OW          37.5724    44.5930     0.7840 OW            1 RES     
   11845 HW1         37.5494    43.9720     0.0010 HW1           1 RES     
   11846 HW2         37.6364    45.5370     0.4600 HW2           1 RES     
   11847 OW          51.4584    26.4540    20.3050 OW            1 RES     
   11848 HW1         52.4354    26.3440    20.4840 HW1           1 RES     
   11849 HW2         51.0574    25.5640    20.0850 HW2           1 RES     
   11850 OW           6.7774    18.0750    11.2870 OW            1 RES     
   11851 HW1          7.3814    17.2840    11.3690 HW1           1 RES     
   11852 HW2          7.3244    18.9110    11.2500 HW2           1 RES     
   11853 OW           4.6104     6.8150    17.1960 OW            1 RES     
   11854 HW1          4.3124     7.7620    17.3110 HW1           1 RES     
   11855 HW2          5.6084     6.7710    17.2370 HW2           1 RES     
   11856 OW           8.3324    30.8040     4.8750 OW            1 RES     
   11857 HW1          7.4334    31.0710     5.2220 HW1           1 RES     
   11858 HW2          8.8874    31.6220     4.7230 HW2           1 RES     
   11859 OW          46.9654    13.0980    12.9720 OW            1 RES     
   11860 HW1         47.3994    13.7790    12.3830 HW1           1 RES     
   11861 HW2         46.3274    13.5520    13.5940 HW2           1 RES     
   11862 OW          39.1254    32.2930     4.3340 OW            1 RES     
   11863 HW1         39.3654    31.3260     4.4130 HW1           1 RES     
   11864 HW2         38.1384    32.4020     4.4540 HW2           1 RES     
   11865 OW          34.9724    22.2140    18.4450 OW            1 RES     
   11866 HW1         35.3394    22.6710    19.2540 HW1           1 RES     
   11867 HW2         35.6134    21.5080    18.1410 HW2           1 RES     
   11868 OW          22.1964    45.5230     9.5510 OW            1 RES     
   11869 HW1         21.8344    46.4540     9.5180 HW1           1 RES     
   11870 HW2         23.1944    45.5540     9.6140 HW2           1 RES     
   11871 OW          54.7204    44.3660     6.1840 OW            1 RES     
   11872 HW1         53.8864    44.0200     5.7560 HW1           1 RES     
   11873 HW2         55.3284    43.6010     6.3960 HW2           1 RES     
   11874 OW          39.9884     6.4520    21.8290 OW            1 RES     
   11875 HW1         40.4054     5.5440    21.8210 HW1           1 RES     
   11876 HW2         40.7054     7.1490    21.7810 HW2           1 RES     
   11877 OW          28.5854    47.0300     2.2770 OW            1 RES     
   11878 HW1         29.4794    46.6090     2.1270 HW1           1 RES     
   11879 HW2         28.1144    46.5570     3.0230 HW2           1 RES     
   11880 OW          28.5964    39.1210    20.6800 OW            1 RES     
   11881 HW1         28.0514    39.9440    20.5270 HW1           1 RES     
   11882 HW2         27.9904    38.3300    20.7660 HW2           1 RES     
   11883 OW          34.7454    31.8110     0.7480 OW            1 RES     
   11884 HW1         34.4794    32.2750     1.5920 HW1           1 RES     
   11885 HW2         34.1324    32.0870     0.0080 HW2           1 RES     
   11886 OW          47.2804     6.8380    25.7300 OW            1 RES     
   11887 HW1         48.2424     6.5940    25.6090 HW1           1 RES     
   11888 HW2         46.7084     6.0350    25.5640 HW2           1 RES     
   11889 OW          19.6094    37.4030     1.5270 OW            1 RES     
   11890 HW1         20.4644    37.1130     1.0980 HW1           1 RES     
   11891 HW2         18.8354    37.0230     1.0210 HW2           1 RES     
   11892 OW          19.2344    16.5260    21.1100 OW            1 RES     
   11893 HW1         18.7214    17.3030    21.4730 HW1           1 RES     
   11894 HW2         18.5994    15.8570    20.7260 HW2           1 RES     
   11895 OW           5.4904    41.2480    25.5370 OW            1 RES     
   11896 HW1          6.4064    41.0990    25.1690 HW1           1 RES     
   11897 HW2          5.5324    41.2800    26.5360 HW2           1 RES     
   11898 OW          28.9414    45.3810    16.4410 OW            1 RES     
   11899 HW1         28.3044    44.6300    16.2720 HW1           1 RES     
   11900 HW2         28.4424    46.1650    16.8090 HW2           1 RES     
   11901 OW          23.9494    15.6730    23.2170 OW            1 RES     
   11902 HW1         23.9744    14.8160    22.7040 HW1           1 RES     
   11903 HW2         23.0034    15.8900    23.4590 HW2           1 RES     
   11904 OW          42.4004    35.7460     2.3500 OW            1 RES     
   11905 HW1         42.7324    36.5410     2.8570 HW1           1 RES     
   11906 HW2         43.1554    35.1070     2.2000 HW2           1 RES     
   11907 OW          40.5864    44.7710     0.8050 OW            1 RES     
   11908 HW1         40.8574    45.6390     0.3910 HW1           1 RES     
   11909 HW2         41.1474    44.0320     0.4310 HW2           1 RES     
   11910 OW          54.1154     5.8700    10.8910 OW            1 RES     
   11911 HW1         54.1764     4.8950    11.1010 HW1           1 RES     
   11912 HW2         53.1964     6.2010    11.1070 HW2           1 RES     
   11913 OW           3.6744    30.7370    19.8710 OW            1 RES     
   11914 HW1          4.1664    31.3260    20.5110 HW1           1 RES     
   11915 HW2          3.4644    31.2500    19.0390 HW2           1 RES     
   11916 OW          38.5694    25.8470    19.8950 OW            1 RES     
   11917 HW1         39.3934    25.4480    20.2960 HW1           1 RES     
   11918 HW2         38.6484    25.8440    18.8980 HW2           1 RES     
   11919 OW          18.3734    15.5900    24.9010 OW            1 RES     
   11920 HW1         18.5304    14.6560    24.5810 HW1           1 RES     
   11921 HW2         17.6584    16.0170    24.3470 HW2           1 RES     
   11922 OW          14.1614     8.4940    20.0860 OW            1 RES     
   11923 HW1         14.9974     8.0410    20.3930 HW1           1 RES     
   11924 HW2         14.2474     9.4810    20.2220 HW2           1 RES     
   11925 OW           4.2854    46.4000    16.7120 OW            1 RES     
   11926 HW1          3.7274    46.1460    17.5010 HW1           1 RES     
   11927 HW2          4.4244    45.6000    16.1290 HW2           1 RES     
   11928 OW          39.0364    32.4060     7.3750 OW            1 RES     
   11929 HW1         38.8834    33.1910     7.9750 HW1           1 RES     
   11930 HW2         39.9774    32.0840     7.4810 HW2           1 RES     
   11931 OW          43.7194    33.1960    13.5090 OW            1 RES     
   11932 HW1         44.4804    32.8410    12.9680 HW1           1 RES     
   11933 HW2         44.0674    33.5740    14.3670 HW2           1 RES     
   11934 OW          35.3334     0.6940    10.4340 OW            1 RES     
   11935 HW1         36.1924     0.3350    10.0690 HW1           1 RES     
   11936 HW2         34.9164     0.0140    11.0370 HW2           1 RES     
   11937 OW          23.6284    38.1300     4.8410 OW            1 RES     
   11938 HW1         23.1164    37.4580     5.3750 HW1           1 RES     
   11939 HW2         24.4554    37.7040     4.4730 HW2           1 RES     
   11940 OW          31.3514    36.9280    21.0230 OW            1 RES     
   11941 HW1         30.4594    36.5380    21.2470 HW1           1 RES     
   11942 HW2         32.0574    36.2260    21.1230 HW2           1 RES     
   11943 OW          36.0804    42.4700    24.6810 OW            1 RES     
   11944 HW1         35.6734    41.5700    24.8300 HW1           1 RES     
   11945 HW2         37.0684    42.3730    24.5580 HW2           1 RES     
   11946 OW          42.9314    28.5420     4.1710 OW            1 RES     
   11947 HW1         41.9734    28.8240     4.1320 HW1           1 RES     
   11948 HW2         43.4264    28.9300     3.3940 HW2           1 RES     
   11949 OW           7.0344    10.7610     6.0100 OW            1 RES     
   11950 HW1          7.7564    11.0240     5.3700 HW1           1 RES     
   11951 HW2          7.1774     9.8170     6.3050 HW2           1 RES     
   11952 OW          41.8184    16.3640    10.3490 OW            1 RES     
   11953 HW1         40.9164    16.7920    10.2970 HW1           1 RES     
   11954 HW2         42.4614    16.9930    10.7870 HW2           1 RES     
   11955 OW          23.8184    47.2380    26.1900 OW            1 RES     
   11956 HW1         24.0474    48.0070    26.7860 HW1           1 RES     
   11957 HW2         22.8264    47.1110    26.1760 HW2           1 RES     
   11958 OW           9.7154    48.6420    14.2790 OW            1 RES     
   11959 HW1          8.8784    49.1760    14.3900 HW1           1 RES     
   11960 HW2         10.3824    49.1700    13.7520 HW2           1 RES     
   11961 OW          39.4764     1.6430    15.3630 OW            1 RES     
   11962 HW1         39.3994     0.6820    15.6270 HW1           1 RES     
   11963 HW2         40.2094     2.0760    15.8870 HW2           1 RES     
   11964 OW          15.3354    14.9310     3.8220 OW            1 RES     
   11965 HW1         14.8904    15.7650     3.4990 HW1           1 RES     
   11966 HW2         16.3204    15.0870     3.9000 HW2           1 RES     
   11967 OW          34.1764    20.3710    12.6310 OW            1 RES     
   11968 HW1         34.6304    19.6940    13.2100 HW1           1 RES     
   11969 HW2         34.1784    20.0540    11.6820 HW2           1 RES     
   11970 OW          42.3804    43.7430     7.6960 OW            1 RES     
   11971 HW1         42.1864    44.6110     8.1530 HW1           1 RES     
   11972 HW2         43.3654    43.6580     7.5460 HW2           1 RES     
   11973 OW          28.4394    39.4140    16.5040 OW            1 RES     
   11974 HW1         29.3684    39.7580    16.3720 HW1           1 RES     
   11975 HW2         28.0834    39.0700    15.6350 HW2           1 RES     
   11976 OW          33.0354    35.7710    16.8780 OW            1 RES     
   11977 HW1         33.9324    36.0420    16.5310 HW1           1 RES     
   11978 HW2         33.1464    35.2600    17.7300 HW2           1 RES     
   11979 OW          24.8694    30.3370    20.4570 OW            1 RES     
   11980 HW1         25.7314    30.0490    20.0420 HW1           1 RES     
   11981 HW2         24.8864    30.1370    21.4360 HW2           1 RES     
   11982 OW          22.6584    23.7950    12.4610 OW            1 RES     
   11983 HW1         23.3544    24.4840    12.6600 HW1           1 RES     
   11984 HW2         21.7614    24.2340    12.3990 HW2           1 RES     
   11985 OW          27.0314    42.1190    21.2920 OW            1 RES     
   11986 HW1         26.3114    41.5290    20.9300 HW1           1 RES     
   11987 HW2         26.9504    42.1740    22.2870 HW2           1 RES     
   11988 OW          43.5714    47.0550    22.9050 OW            1 RES     
   11989 HW1         44.2474    46.6260    22.3090 HW1           1 RES     
   11990 HW2         43.6114    48.0490    22.7950 HW2           1 RES     
   11991 OW          21.4224    17.4060     2.4440 OW            1 RES     
   11992 HW1         21.1114    17.9730     1.6820 HW1           1 RES     
   11993 HW2         21.6414    16.4890     2.1110 HW2           1 RES     
   11994 OW          53.5784    16.1060    17.9900 OW            1 RES     
   11995 HW1         52.9864    16.9100    17.9380 HW1           1 RES     
   11996 HW2         54.3994    16.3300    18.5160 HW2           1 RES     
   11997 OW          25.2834     0.4240     9.9590 OW            1 RES     
   11998 HW1         25.9474     1.0890    10.2990 HW1           1 RES     
   11999 HW2         24.4174     0.8860     9.7660 HW2           1 RES     
   12000 OW          28.6574     4.5870    10.8920 OW            1 RES     
   12001 HW1         29.5484     4.2350    10.6100 HW1           1 RES     
   12002 HW2         28.5934     5.5580    10.6600 HW2           1 RES     
   12003 OW           5.7234     5.5350    23.0030 OW            1 RES     
   12004 HW1          5.9894     5.3930    22.0500 HW1           1 RES     
   12005 HW2          5.1234     6.3330    23.0660 HW2           1 RES     
   12006 OW          54.0964    24.7810    20.7270 OW            1 RES     
   12007 HW1         53.9394    23.8020    20.6050 HW1           1 RES     
   12008 HW2         55.0594    24.9900    20.5540 HW2           1 RES     
   12009 OW           5.2214    36.7610    11.8170 OW            1 RES     
   12010 HW1          6.1024    36.3160    11.6610 HW1           1 RES     
   12011 HW2          5.3034    37.7400    11.6290 HW2           1 RES     
   12012 OW           1.6944    21.7370     1.7350 OW            1 RES     
   12013 HW1          0.8634    21.3300     1.3600 HW1           1 RES     
   12014 HW2          2.1604    21.0700     2.3170 HW2           1 RES     
   12015 OW          40.6444    38.1660     2.0530 OW            1 RES     
   12016 HW1         39.8534    38.7630     1.9180 HW1           1 RES     
   12017 HW2         40.5164    37.6260     2.8850 HW2           1 RES     
   12018 OW          29.3554    41.7840     0.3700 OW            1 RES     
   12019 HW1         29.2274    42.1870     1.2750 HW1           1 RES     
   12020 HW2         29.3824    40.7870     0.4480 HW2           1 RES     
   12021 OW           7.2114    41.7530     7.2180 OW            1 RES     
   12022 HW1          6.2444    41.8880     7.0040 HW1           1 RES     
   12023 HW2          7.2964    41.1910     8.0410 HW2           1 RES     
   12024 OW          20.5794     3.4910    14.2630 OW            1 RES     
   12025 HW1         19.9744     4.2710    14.1040 HW1           1 RES     
   12026 HW2         20.8794     3.1170    13.3850 HW2           1 RES     
   12027 OW          52.1504     3.1590    18.3340 OW            1 RES     
   12028 HW1         52.2924     4.1170    18.0860 HW1           1 RES     
   12029 HW2         51.3684     3.0860    18.9530 HW2           1 RES     
   12030 OW           2.5254    33.4180    24.9030 OW            1 RES     
   12031 HW1          1.6244    33.0220    24.7310 HW1           1 RES     
   12032 HW2          2.7144    34.1260    24.2230 HW2           1 RES     
@<TRIPOS>BOND
       1     1077     1078 1
       2      315      316 1
       3      672      673 1
       4      534      535 1
       5      423      424 1
       6     1497     1498 1
       7     1983     1984 1
       8       83       84 1
       9     1695     1696 1
      10      585      586 1
      11     1659     1660 1
      12      844      823 1
      13     3074     3075 1
      14     8691     8692 1
      15     8250     8251 1
      16     6009     6010 1
      17     5334     5335 1
      18     6171     6172 1
      19     6414     6415 1
      20     2259     2260 1
      21     3219     3220 1
      22     3018     3019 1
      23    11343    11344 1
      24    10749    10750 1
      25    10830    10831 1
      26     9588     9589 1
      27     1776     1777 1
      28     1520     1523 1
      29     5652     5654 1
      30     4896     4898 1
      31     9486     9488 1
      32     7569     7571 1
      33     8109     8111 1
      34     2260     2261 1
      35     4221     4222 1
      36     3223     3224 1
      37     3334     3335 1
      38     9093     9094 1
      39     9174     9175 1
      40     9255     9256 1
      41     7257     7258 1
      42     7455     7457 1
      43     7293     7295 1
      44    10731    10733 1
      45    10137    10139 1
      46     7725     7727 1
      47     5052     5054 1
      48    10893    10895 1
      49     9372     9374 1
      50     5808     5810 1
      51    10299    10301 1
      52     7182     7184 1
      53     5346     5348 1
      54     9018     9020 1
      55     2907     2906 1
      56     7665     7667 1
      57     3816     3817 1
      58      656      658 1
      59    11634    11636 1
      60     8280     8281 1
      61     6282     6283 1
      62     4563     4564 1
      63     6363     6364 1
      64     6201     6202 1
      65     1895     1884 1
      66     3724     3725 1
      67      680      681 1
      68      986      987 1
      69      738      739 1
      70      846      847 1
      71     1394     1395 1
      72     2881     2882 1
      73     6537     6538 1
      74     6375     6376 1
      75     6456     6457 1
      76     8616     8617 1
      77      732      733 1
      78     3303     3304 1
      79     4755     4756 1
      80     4674     4675 1
      81     4485     4487 1
      82    10851    10852 1
      83     9852     9853 1
      84    11931    11932 1
      85     3891     3892 1
      86     4069     4070 1
      87     2928     2929 1
      88     3287     3288 1
      89     8766     8768 1
      90     8604     8606 1
      91     6687     6689 1
      92     7227     7229 1
      93     2920     2921 1
      94     8982     8984 1
      95     1550     1551 1
      96    10440    10441 1
      97     9819     9820 1
      98    11898    11899 1
      99    10521    10522 1
     100     9900     9901 1
     101    10602    10603 1
     102     9981     9982 1
     103     9489     9491 1
     104    10410    10411 1
     105     9519     9520 1
     106    11760    11761 1
     107     1849     1850 1
     108    11598    11599 1
     109    10248    10249 1
     110     9681     9682 1
     111     5874     5876 1
     112     2967     2968 1
     113     4857     4859 1
     114    11061    11063 1
     115    11880    11882 1
     116    10692    10694 1
     117     6549     6551 1
     118     8871     8873 1
     119     6954     6956 1
     120     6387     6389 1
     121     6873     6875 1
     122     1815     1816 1
     123     9963     9965 1
     124     8628     8630 1
     125     6468     6470 1
     126     8709     8711 1
     127     1401     1402 1
     128      963      964 1
     129     1617     1616 1
     130     4260     4259 1
     131     2210     2189 1
     132     4040     4041 1
     133     2612     2613 1
     134     7548     7549 1
     135     3959     3948 1
     136     5793     5794 1
     137     5469     5470 1
     138     4545     4546 1
     139     5199     5200 1
     140     9465     9466 1
     141     6117     6118 1
     142     7872     7873 1
     143     9303     9304 1
     144      926      928 1
     145      386      388 1
     146     1358     1360 1
     147     3071     3072 1
     148     3744     3746 1
     149     2704     2705 1
     150     3028     3029 1
     151     4042     4031 1
     152     2076     2065 1
     153     1408     1405 1
     154     4334     4335 1
     155     2883     2884 1
     156      978      979 1
     157     3666     3667 1
     158    11367    11368 1
     159    10530    10531 1
     160     9612     9613 1
     161     1810     1799 1
     162     2214     2212 1
     163     2959     2960 1
     164     9750     9752 1
     165    10101    10103 1
     166    11856    11858 1
     167     9912     9914 1
     168     9939     9941 1
     169    11505    11507 1
     170     3321     3322 1
     171     2997     2998 1
     172     4521     4523 1
     173      922      920 1
     174     3835     3836 1
     175     2938     2939 1
     176     2221     2222 1
     177     3689     3692 1
     178     2285     2288 1
     179     6219     6220 1
     180     8136     8137 1
     181     5301     5302 1
     182     7974     7975 1
     183     6300     6301 1
     184     7626     7628 1
     185     7707     7709 1
     186     2584     2583 1
     187     7809     7810 1
     188     8727     8728 1
     189     6648     6649 1
     190      179      180 1
     191     5628     5630 1
     192     5709     5711 1
     193     4974     4975 1
     194    11346    11347 1
     195    10158    10159 1
     196     9996     9997 1
     197    10509    10510 1
     198    11157    11158 1
     199      458      459 1
     200      884      885 1
     201     9591     9592 1
     202     1220     1221 1
     203     1466     1467 1
     204     1766     1767 1
     205     3296     3297 1
     206     2759     2760 1
     207     3983     3984 1
     208     3416     3417 1
     209     1752     1753 1
     210     1679     1680 1
     211     9744     9746 1
     212    10500    10502 1
     213    11661    11663 1
     214     9582     9584 1
     215    11094    11096 1
     216    12012    12014 1
     217    11499    11501 1
     218      617      618 1
     219    10932    10934 1
     220    11850    11852 1
     221     5478     5480 1
     222     1844     1845 1
     223     2811     2812 1
     224     7785     7786 1
     225     5112     5113 1
     226     1007     1008 1
     227     8511     8513 1
     228     8430     8432 1
     229     6513     6515 1
     230     6000     6002 1
     231     8241     8243 1
     232     8349     8351 1
     233     5325     5327 1
     234     6405     6407 1
     235     6432     6434 1
     236     6162     6164 1
     237      924      925 1
     238     1617     1618 1
     239    10437    10439 1
     240    10032    10034 1
     241    11787    11789 1
     242      865      868 1
     243    10599    10601 1
     244    10869    10871 1
     245     2292     2293 1
     246    11949    11951 1
     247     1182     1181 1
     248     1836     1837 1
     249     1092     1093 1
     250    11007    11009 1
     251    10800    10802 1
     252    10017    10019 1
     253     4677     4678 1
     254     3022     3023 1
     255     8775     8776 1
     256     7020     7021 1
     257     6696     6697 1
     258     7101     7102 1
     259      507      508 1
     260     6192     6194 1
     261     2695     2694 1
     262     4827     4829 1
     263     4851     4852 1
     264     1901     1902 1
     265      477      476 1
     266     2129     2130 1
     267     4440     4441 1
     268     4608     4609 1
     269     4368     4369 1
     270     2441     2442 1
     271     3699     3700 1
     272      799      798 1
     273    10371    10372 1
     274    11289    11290 1
     275    10533    10534 1
     276    11613    11614 1
     277     7947     7949 1
     278    11184    11186 1
     279     4431     4433 1
     280     4551     4553 1
     281      125      126 1
     282     1885     1886 1
     283     1536     1537 1
     284     1172     1170 1
     285      330      331 1
     286     3874     3875 1
     287      926      929 1
     288      386      389 1
     289     1358     1361 1
     290     2184     2186 1
     291     1945     1946 1
     292     2019     2020 1
     293     9444     9445 1
     294     7203     7204 1
     295     7446     7447 1
     296     9201     9202 1
     297     3831     3832 1
     298     8751     8753 1
     299     8589     8591 1
     300    11379    11381 1
     301    11136    11138 1
     302    11460    11462 1
     303     6672     6674 1
     304     8670     8672 1
     305     9543     9545 1
     306     9153     9155 1
     307     6777     6779 1
     308     8691     8693 1
     309     5277     5278 1
     310      421      422 1
     311     2296     2297 1
     312     5460     5462 1
     313    10881    10883 1
     314     3076     3077 1
     315     3324     3325 1
     316    11124    11126 1
     317     3915     3916 1
     318     2566     2567 1
     319    11610    11612 1
     320     8235     8236 1
     321     7695     7696 1
     322     3682     3683 1
     323     2452     2453 1
     324     2181     2182 1
     325     4013     4014 1
     326     4782     4783 1
     327     3378     3377 1
     328     4106     4107 1
     329    10119    10120 1
     330     9957     9958 1
     331    11874    11875 1
     332     2904     2905 1
     333     2901     2902 1
     334     3438     3439 1
     335     3231     3232 1
     336     3450     3451 1
     337     3762     3763 1
     338     2930     2931 1
     339     4214     4215 1
     340     2688     2689 1
     341     2679     2680 1
     342     4229     4230 1
     343     4182     4171 1
     344     2919     2920 1
     345     2208     2209 1
     346     2735     2736 1
     347     6201     6203 1
     348     6282     6284 1
     349     4563     4565 1
     350     6363     6365 1
     351     2446     2445 1
     352     8280     8282 1
     353      805      806 1
     354     2147     2136 1
     355      156      157 1
     356     2647     2646 1
     357     2856     2857 1
     358     3279     3280 1
     359     3822     3823 1
     360     3168     3169 1
     361    10335    10337 1
     362    10491    10492 1
     363    10572    10573 1
     364     2616     2617 1
     365    10554    10556 1
     366     6519     6521 1
     367     8340     8342 1
     368      380      382 1
     369      609      611 1
     370     8667     8668 1
     371      312      313 1
     372     1185     1186 1
     373     1260     1261 1
     374     9651     9653 1
     375     3519     3520 1
     376     9177     9178 1
     377     7260     7261 1
     378     4965     4966 1
     379     7638     7639 1
     380     5721     5722 1
     381     5883     5884 1
     382     2571     2572 1
     383     2907     2908 1
     384      818      820 1
     385     2180     2181 1
     386    11565    11566 1
     387     3173     3174 1
     388     2960     2961 1
     389     4446     4448 1
     390     9408     9409 1
     391     7653     7654 1
     392     7491     7492 1
     393     5736     5737 1
     394      686      687 1
     395      440      443 1
     396     1095     1097 1
     397     4337     4326 1
     398     7905     7907 1
     399     8445     8447 1
     400     5394     5396 1
     401     5232     5234 1
     402     5988     5990 1
     403     6528     6530 1
     404     1718     1717 1
     405     4944     4946 1
     406     7617     7619 1
     407     5862     5864 1
     408     7887     7889 1
     409     5214     5216 1
     410     5700     5702 1
     411     5376     5378 1
     412     5970     5972 1
     413     9126     9128 1
     414     7533     7535 1
     415     6102     6104 1
     416     8208     8210 1
     417     5265     5267 1
     418     7128     7130 1
     419     1351     1354 1
     420     3394     3395 1
     421     6444     6445 1
     422     8442     8443 1
     423     8523     8524 1
     424     6606     6607 1
     425     8361     8362 1
     426     6525     6526 1
     427     9804     9806 1
     428     9966     9968 1
     429      460      461 1
     430     9885     9887 1
     431    11883    11885 1
     432     2201     2200 1
     433     3899     3898 1
     434     4401     4403 1
     435    10368    10370 1
     436    11826    11828 1
     437     4116     4117 1
     438     3298     3299 1
     439      431      432 1
     440     2350     2351 1
     441     3520     3521 1
     442      638      639 1
     443     1178     1179 1
     444     1386     1387 1
     445     5424     5426 1
     446      971      972 1
     447     8454     8455 1
     448     8778     8779 1
     449     8535     8536 1
     450     3370     3371 1
     451     6618     6619 1
     452     1653     1652 1
     453     8940     8941 1
     454     2049     2038 1
     455     6699     6700 1
     456     6780     6781 1
     457     9999    10000 1
     458     8298     8299 1
     459     7137     7138 1
     460     5544     5545 1
     461     9216     9217 1
     462     6837     6838 1
     463     9132     9133 1
     464     7377     7378 1
     465    10368    10369 1
     466     4575     4576 1
     467     1893     1894 1
     468      890      891 1
     469     1874     1875 1
     470      494      495 1
     471     4413     4415 1
     472     4653     4655 1
     473     1760     1761 1
     474     4734     4736 1
     475     2619     2620 1
     476     3065     3066 1
     477     3931     3920 1
     478     5871     5873 1
     479     3895     3896 1
     480     2197     2198 1
     481    11067    11069 1
     482    10878    10880 1
     483     5240     5238 1
     484    10338    10340 1
     485    11331    11332 1
     486     9954     9955 1
     487    11871    11872 1
     488    11790    11791 1
     489    10035    10036 1
     490    10116    10117 1
     491    11952    11953 1
     492     5736     5738 1
     493     7809     7811 1
     494     8727     8729 1
     495      212      211 1
     496     6648     6650 1
     497     4974     4976 1
     498     1569     1570 1
     499     1920     1921 1
     500     2150     2151 1
     501     2822     2823 1
     502    11733    11735 1
     503    11814    11816 1
     504     1114     1093 1
     505      522      524 1
     506     2953     2954 1
     507     3826     3827 1
     508      464      463 1
     509     3715     3716 1
     510    10353    10354 1
     511    10953    10955 1
     512     2132     2121 1
     513     7185     7187 1
     514      453      452 1
     515      852      853 1
     516     1074     1075 1
     517      101      102 1
     518     1713     1714 1
     519     2560     2561 1
     520     1374     1375 1
     521     1161     1162 1
     522     3954     3955 1
     523     7804     7803 1
     524     7788     7790 1
     525      289      288 1
     526     2900     2901 1
     527     2366     2367 1
     528     5001     5003 1
     529     2471     2472 1
     530     2477     2478 1
     531     2249     2250 1
     532     5208     5209 1
     533     1754     1743 1
     534     2697     2698 1
     535     1793     1794 1
     536     1748     1749 1
     537     1801     1802 1
     538      183      184 1
     539      189      190 1
     540     2021     2010 1
     541      210      211 1
     542     3518     3519 1
     543     3092     3093 1
     544     2320     2322 1
     545      119      120 1
     546     1943     1944 1
     547      362      363 1
     548     3124     3125 1
     549     3550     3551 1
     550     3013     3014 1
     551      818      821 1
     552     2791     2792 1
     553     3016     3017 1
     554    11799    11800 1
     555    10881    10882 1
     556    10044    10045 1
     557    11961    11962 1
     558     5853     5854 1
     559     5097     5098 1
     560     7932     7933 1
     561     8121     8122 1
     562    11001    11003 1
     563    11325    11327 1
     564    10110    10112 1
     565    11082    11084 1
     566    11865    11867 1
     567    11784    11786 1
     568    11541    11543 1
     569    11298    11300 1
     570    11622    11624 1
     571    10920    10922 1
     572     5157     5159 1
     573     4085     4074 1
     574      648      647 1
     575      630      632 1
     576     7173     7174 1
     577     7011     7012 1
     578     4491     4492 1
     579     8928     8929 1
     580      777      778 1
     581      349      350 1
     582     1423     1424 1
     583     2971     2972 1
     584        8       10 1
     585     4440     4442 1
     586     4608     4610 1
     587     4368     4370 1
     588     4294     4283 1
     589     3259     3260 1
     590     2393     2396 1
     591     7452     7453 1
     592     5454     5455 1
     593     9450     9451 1
     594     9288     9289 1
     595     1601     1602 1
     596     6372     6373 1
     597     4180     4181 1
     598     2362     2361 1
     599     2670     2671 1
     600     2238     2239 1
     601     4099     4088 1
     602     6495     6497 1
     603     1417     1418 1
     604      292      293 1
     605     3458     3459 1
     606      517      518 1
     607    11553    11554 1
     608    11310    11311 1
     609    11634    11635 1
     610     3363     3364 1
     611     3024     3025 1
     612     2703     2704 1
     613     3252     3253 1
     614     2592     2593 1
     615     3564     3565 1
     616     3141     3142 1
     617     2383     2384 1
     618     8325     8327 1
     619     3463     3464 1
     620     6525     6527 1
     621      581      582 1
     622      593      594 1
     623      794      795 1
     624     1768     1757 1
     625     3541     3543 1
     626    11886    11887 1
     627     7419     7420 1
     628     1249     1250 1
     629     1203     1204 1
     630     1623     1624 1
     631     1515     1516 1
     632     3210     3213 1
     633     2832     2833 1
     634     4692     4693 1
     635     4773     4774 1
     636    11655    11657 1
     637     9738     9740 1
     638    10170    10172 1
     639    10494    10496 1
     640    10008    10010 1
     641    11493    11495 1
     642     1298     1300 1
     643    11169    11171 1
     644     2781     2782 1
     645     9576     9578 1
     646    10746    10748 1
     647    10557    10559 1
     648     6360     6362 1
     649     8277     8279 1
     650     5064     5066 1
     651    10260    10262 1
     652     5820     5822 1
     653     7737     7739 1
     654     6198     6200 1
     655      193      192 1
     656     2046     2047 1
     657     5940     5941 1
     658      612      613 1
     659      152      153 1
     660     2357     2358 1
     661     9438     9439 1
     662      347      348 1
     663     9033     9034 1
     664     7440     7441 1
     665     4569     4570 1
     666     9195     9196 1
     667     4449     4450 1
     668     5442     5443 1
     669     9276     9277 1
     670     7197     7198 1
     671     1162     1163 1
     672     3134     3135 1
     673      619      620 1
     674     2528     2529 1
     675     3159     3160 1
     676     3096     3098 1
     677     1928     1929 1
     678     3034     3035 1
     679     4351     4340 1
     680     7643     7641 1
     681     5726     5724 1
     682      891      892 1
     683     1422     1423 1
     684     1589     1590 1
     685    10956    10957 1
     686     3540     3539 1
     687     5934     5936 1
     688     5529     5531 1
     689     5691     5693 1
     690     5016     5018 1
     691       38       39 1
     692     5772     5774 1
     693     7527     7529 1
     694     7770     7772 1
     695     4935     4937 1
     696     1199     1200 1
     697     1772     1773 1
     698    10023    10024 1
     699     3346     3348 1
     700     2505     2506 1
     701     1794     1795 1
     702     9177     9179 1
     703     7260     7262 1
     704     4130     4131 1
     705     7638     7640 1
     706     4965     4967 1
     707     5721     5723 1
     708     5883     5885 1
     709     4779     4780 1
     710    11424    11426 1
     711    11181    11183 1
     712     2372     2351 1
     713     1190     1192 1
     714     4152     4153 1
     715     2545     2546 1
     716     3290     3269 1
     717      662      663 1
     718     1060     1061 1
     719     3802     3803 1
     720      393      395 1
     721     5895     5896 1
     722     5139     5140 1
     723     6435     6436 1
     724     2237     2238 1
     725     3595     3596 1
     726     7653     7655 1
     727     9408     9410 1
     728     3948     3949 1
     729     6540     6541 1
     730     6945     6946 1
     731     6864     6865 1
     732     8862     8863 1
     733     8619     8620 1
     734       81       80 1
     735      625      624 1
     736     6378     6379 1
     737     8700     8701 1
     738     6459     6460 1
     739    11315    11313 1
     740     3659     3660 1
     741    11801    11799 1
     742     2897     2898 1
     743     1907     1906 1
     744     1344     1343 1
     745     3476     3477 1
     746     4647     4648 1
     747     1649     1650 1
     748     4407     4408 1
     749     1532     1533 1
     750     1034     1035 1
     751    11712    11713 1
     752     9795     9796 1
     753     9633     9634 1
     754     4066     4065 1
     755      214      213 1
     756      792      794 1
     757     8442     8444 1
     758     6444     6446 1
     759     8523     8525 1
     760     6606     6608 1
     761     8361     8363 1
     762     8703     8705 1
     763     2066     2067 1
     764     2138     2139 1
     765     1345     1346 1
     766      552      551 1
     767     4081     4082 1
     768      717      718 1
     769    11160    11161 1
     770    11241    11242 1
     771    11349    11350 1
     772     9594     9595 1
     773     4330     4331 1
     774       36       37 1
     775     1147     1148 1
     776     2562     2564 1
     777     6837     6839 1
     778     9132     9134 1
     779     7377     7379 1
     780      708      709 1
     781     2159     2160 1
     782     9369     9371 1
     783      339      340 1
     784     6453     6455 1
     785       59       60 1
     786    11166    11168 1
     787    11247    11249 1
     788     8343     8345 1
     789      276      277 1
     790     2262     2261 1
     791     7254     7256 1
     792    10404    10406 1
     793    10026    10028 1
     794    10431    10433 1
     795    11592    11594 1
     796    11754    11756 1
     797    11781    11783 1
     798    10593    10595 1
     799     2743     2744 1
     800    10242    10244 1
     801     9675     9677 1
     802     4032     4033 1
     803     2559     2558 1
     804      568      569 1
     805      968      969 1
     806      755      756 1
     807      749      750 1
     808    10311    10313 1
     809     6912     6913 1
     810     6075     6076 1
     811     5832     5833 1
     812     5094     5096 1
     813     3156     3158 1
     814     4824     4825 1
     815     1023     1024 1
     816     8493     8494 1
     817     6576     6577 1
     818     4120     4121 1
     819      248      249 1
     820     6738     6739 1
     821     3611     3612 1
     822     9057     9059 1
     823     4479     4481 1
     824     4025     4026 1
     825     5391     5393 1
     826     7218     7220 1
     827     7623     7625 1
     828     5706     5708 1
     829     5868     5870 1
     830     8973     8975 1
     831     4950     4952 1
     832     3226     3227 1
     833     3877     3878 1
     834     3115     3116 1
     835     9345     9346 1
     836     6339     6340 1
     837     6258     6259 1
     838     3075     3076 1
     839     8175     8176 1
     840     8094     8095 1
     841     8580     8581 1
     842     5259     5260 1
     843    10704    10706 1
     844    10812    10814 1
     845     6501     6502 1
     846    10974    10976 1
     847     6129     6131 1
     848     5292     5294 1
     849     8694     8696 1
     850       34       13 1
     851     3820     3821 1
     852     5202     5203 1
     853      353      352 1
     854     7875     7876 1
     855     6120     6121 1
     856     5040     5041 1
     857     5283     5284 1
     858     5796     5797 1
     859     7956     7957 1
     860     7794     7795 1
     861     6039     6040 1
     862     2728     2729 1
     863     6027     6029 1
     864     9801     9803 1
     865     9990     9992 1
     866     4872     4874 1
     867     2458     2459 1
     868     2890     2891 1
     869     2233     2234 1
     870     2292     2295 1
     871     3930     3919 1
     872      177      179 1
     873      906      907 1
     874     3767     3768 1
     875     2990     2991 1
     876     2454     2455 1
     877     3102     3103 1
     878    10725    10726 1
     879    10131    10132 1
     880     2828     2829 1
     881    10887    10888 1
     882    10293    10294 1
     883      350      351 1
     884      566      567 1
     885     2113     2114 1
     886       11       12 1
     887    11442    11443 1
     888    11010    11011 1
     889    11091    11092 1
     890     3234     3235 1
     891    11199    11200 1
     892     3435     3436 1
     893    10929    10930 1
     894    10014    10015 1
     895     9771     9772 1
     896    10176    10177 1
     897    11175    11176 1
     898    11526    11527 1
     899     9933     9934 1
     900     1733     1734 1
     901     3528     3530 1
     902     7011     7013 1
     903     8928     8930 1
     904     7173     7175 1
     905     4491     4493 1
     906      626      627 1
     907      913      914 1
     908      802      803 1
     909      259      260 1
     910     1564     1565 1
     911     5787     5788 1
     912    10281    10283 1
     913    12009    12011 1
     914       41       42 1
     915    11847    11849 1
     916    10092    10094 1
     917    10356    10357 1
     918    10194    10195 1
     919     9012     9013 1
     920     8640     8642 1
     921     8559     8561 1
     922     1407     1408 1
     923      537      536 1
     924      776      775 1
     925       24       25 1
     926     1720     1721 1
     927     3560     3539 1
     928      297      298 1
     929     4839     4840 1
     930     2298     2299 1
     931     1825     1826 1
     932      678      679 1
     933     4165     4166 1
     934     3679     3680 1
     935     9270     9272 1
     936     2973     2974 1
     937     2436     2437 1
     938     2985     2986 1
     939      366      367 1
     940     3854     3855 1
     941     6639     6640 1
     942     3398     3399 1
     943     3722     3723 1
     944     4194     4195 1
     945    11676    11677 1
     946    10758    10759 1
     947      553      554 1
     948     1093     1094 1
     949     3657     3658 1
     950     3467     3468 1
     951      838      839 1
     952       72       73 1
     953     2654     2655 1
     954     2870     2871 1
     955     3632     3633 1
     956     2738     2739 1
     957     2843     2844 1
     958     2173     2174 1
     959     2377     2378 1
     960     2389     2390 1
     961     1133     1134 1
     962     4224     4213 1
     963     2817     2818 1
     964     3423     3424 1
     965     1658     1659 1
     966     9147     9149 1
     967     8229     8231 1
     968     8391     8393 1
     969     7392     7394 1
     970      762      763 1
     971     6510     6511 1
     972     2623     2625 1
     973     8481     8483 1
     974     6564     6566 1
     975     6726     6728 1
     976    11616    11617 1
     977     5994     5996 1
     978     4995     4997 1
     979     2413     2414 1
     980     9090     9091 1
     981     9414     9415 1
     982     4035     4036 1
     983     7497     7498 1
     984     4833     4834 1
     985     9252     9253 1
     986     5742     5743 1
     987     7659     7660 1
     988     3175     3176 1
     989       88       67 1
     990    10695    10697 1
     991    11019    11021 1
     992     9696     9698 1
     993     9858     9860 1
     994     2647     2648 1
     995     4545     4547 1
     996     2856     2855 1
     997     3415     3416 1
     998     3838     3839 1
     999     3844     3845 1
    1000     1499     1500 1
    1001      962      963 1
    1002     1388     1389 1
    1003     2764     2765 1
    1004     3982     3983 1
    1005     3193     3194 1
    1006     5646     5647 1
    1007     7563     7564 1
    1008     4890     4891 1
    1009     3154     3155 1
    1010     4244     4245 1
    1011     8103     8104 1
    1012     2616     2619 1
    1013     9480     9481 1
    1014     4605     4606 1
    1015     6615     6616 1
    1016     8451     8452 1
    1017     8532     8533 1
    1018     2345     2346 1
    1019     6381     6382 1
    1020     6543     6544 1
    1021     5616     5617 1
    1022     7614     7615 1
    1023     8622     8623 1
    1024     6462     6463 1
    1025     5973     5974 1
    1026     7053     7054 1
    1027     8646     8647 1
    1028     8808     8809 1
    1029     7890     7891 1
    1030     5217     5218 1
    1031     5379     5380 1
    1032     1947     1948 1
    1033     3297     3298 1
    1034     3084     3085 1
    1035     6246     6247 1
    1036     6192     6193 1
    1037     4188     4189 1
    1038    11481    11482 1
    1039    11643    11644 1
    1040    12021    12022 1
    1041     9726     9727 1
    1042     4503     4504 1
    1043      356      357 1
    1044    11400    11401 1
    1045     9564     9565 1
    1046    11562    11563 1
    1047     9645     9646 1
    1048     9849     9850 1
    1049    11928    11929 1
    1050     1555     1554 1
    1051     2269     2270 1
    1052     2275     2276 1
    1053     4181     4182 1
    1054      472      473 1
    1055      586      587 1
    1056      808      809 1
    1057       56       58 1
    1058     5448     5449 1
    1059    11103    11105 1
    1060    10563    10565 1
    1061    11265    11267 1
    1062      547      548 1
    1063    11376    11377 1
    1064      501      502 1
    1065     1226     1227 1
    1066     2823     2824 1
    1067     5274     5275 1
    1068     3997     3998 1
    1069     3683     3684 1
    1070     1238     1239 1
    1071     2667     2668 1
    1072     7947     7948 1
    1073    11388    11390 1
    1074    10767    10769 1
    1075    11145    11147 1
    1076    10848    10850 1
    1077    11469    11471 1
    1078     9552     9554 1
    1079      227      228 1
    1080     2886     2888 1
    1081     2994     2996 1
    1082     1547     1548 1
    1083     6540     6542 1
    1084     8862     8864 1
    1085     6864     6866 1
    1086     8619     8621 1
    1087     6378     6380 1
    1088     8700     8702 1
    1089     6459     6461 1
    1090     6945     6947 1
    1091     1614     1615 1
    1092     1917     1918 1
    1093     1140     1141 1
    1094    11112    11114 1
    1095    11274    11276 1
    1096    12030    12032 1
    1097     4419     4421 1
    1098     5100     5101 1
    1099     1997     1998 1
    1100      694      695 1
    1101    11727    11729 1
    1102    11808    11810 1
    1103     7068     7069 1
    1104      784      785 1
    1105     7899     7901 1
    1106     5982     5984 1
    1107     5226     5228 1
    1108     8439     8441 1
    1109      704      706 1
    1110     5388     5390 1
    1111     6522     6524 1
    1112    10314    10315 1
    1113      321      322 1
    1114      747      748 1
    1115     4662     4663 1
    1116     4743     4744 1
    1117     2468     2469 1
    1118     1937     1938 1
    1119     2252     2253 1
    1120     7206     7207 1
    1121     9285     9286 1
    1122     9447     9448 1
    1123     9042     9043 1
    1124     5451     5452 1
    1125     4175     4174 1
    1126     9204     9205 1
    1127     7449     7450 1
    1128     5604     5605 1
    1129     7602     7603 1
    1130     7359     7360 1
    1131     9357     9358 1
    1132     7038     7040 1
    1133     6795     6797 1
    1134     2586     2587 1
    1135     3543     3544 1
    1136     2469     2470 1
    1137     2475     2476 1
    1138     4512     4513 1
    1139     2846     2847 1
    1140    11370    11371 1
    1141     1949     1950 1
    1142     4163     4162 1
    1143     8588     8586 1
    1144     2026     2027 1
    1145     1088     1091 1
    1146     7065     7067 1
    1147     1670     1671 1
    1148     1334     1335 1
    1149      914      915 1
    1150     6759     6761 1
    1151     6840     6842 1
    1152     6921     6923 1
    1153     2581     2582 1
    1154     3232     3233 1
    1155     2584     2585 1
    1156     2473     2474 1
    1157     2896     2897 1
    1158     3658     3659 1
    1159     3655     3656 1
    1160     3544     3545 1
    1161     2470     2471 1
    1162     3547     3548 1
    1163    11298    11299 1
    1164     7113     7115 1
    1165     2859     2860 1
    1166     8904     8905 1
    1167     1408     1409 1
    1168     8661     8662 1
    1169     8823     8824 1
    1170     8832     8834 1
    1171     9183     9185 1
    1172     7158     7160 1
    1173      605      606 1
    1174     8913     8915 1
    1175     9426     9428 1
    1176     9021     9023 1
    1177     7428     7430 1
    1178     6996     6998 1
    1179     8994     8996 1
    1180     1853     1854 1
    1181     4887     4889 1
    1182     5643     5645 1
    1183     4082     4083 1
    1184     6174     6176 1
    1185     2312     2311 1
    1186     2527     2528 1
    1187     2314     2315 1
    1188     2784     2785 1
    1189      644      645 1
    1190      414      415 1
    1191     7755     7756 1
    1192     1929     1930 1
    1193     1982     1983 1
    1194     2341     2342 1
    1195     3691     3692 1
    1196     3365     3368 1
    1197     4707     4708 1
    1198     4389     4390 1
    1199     2992     2993 1
    1200     4118     4119 1
    1201     2771     2774 1
    1202     7119     7120 1
    1203    11256    11257 1
    1204     9432     9433 1
    1205     1593     1592 1
    1206     1233     1232 1
    1207      665      666 1
    1208     1201     1202 1
    1209      661      662 1
    1210     1838     1827 1
    1211    11202    11203 1
    1212     2919     2918 1
    1213     9279     9281 1
    1214    10662    10663 1
    1215     2604     2605 1
    1216     4060     4061 1
    1217     3459     3460 1
    1218     2916     2917 1
    1219     2715     2716 1
    1220     3033     3034 1
    1221     8949     8951 1
    1222     5040     5042 1
    1223     6120     6122 1
    1224     1613     1614 1
    1225     7875     7877 1
    1226     1916     1917 1
    1227     5202     5204 1
    1228     5283     5285 1
    1229     7956     7958 1
    1230     7794     7796 1
    1231     5796     5798 1
    1232     2523     2524 1
    1233     3288     3289 1
    1234     2634     2635 1
    1235     2952     2953 1
    1236      328      325 1
    1237     3177     3178 1
    1238     3489     3490 1
    1239     3063     3064 1
    1240    10764    10765 1
    1241    11682    11683 1
    1242     1781     1782 1
    1243     1255     1256 1
    1244     4113     4102 1
    1245     1192     1193 1
    1246     6165     6167 1
    1247     2882     2880 1
    1248      385      386 1
    1249     1421     1419 1
    1250     2846     2845 1
    1251     1438     1439 1
    1252     8355     8357 1
    1253    10152    10154 1
    1254    11232    11234 1
    1255      922      919 1
    1256       23       24 1
    1257      645      646 1
    1258      107      108 1
    1259     1719     1720 1
    1260     4183     4172 1
    1261      182      183 1
    1262     9000     9002 1
    1263     3192     3191 1
    1264      146      147 1
    1265      363      364 1
    1266     4027     4028 1
    1267     7584     7585 1
    1268     9501     9502 1
    1269      764      765 1
    1270     5667     5668 1
    1271    10461    10462 1
    1272    10785    10786 1
    1273    10083    10084 1
    1274     4911     4912 1
    1275     5253     5254 1
    1276     6252     6253 1
    1277     8169     8170 1
    1278     8574     8575 1
    1279     8412     8413 1
    1280    11838    11839 1
    1281     8007     8008 1
    1282     8331     8332 1
    1283     6090     6091 1
    1284     8088     8089 1
    1285     5067     5069 1
    1286     2414     2415 1
    1287     2152     2153 1
    1288      707      708 1
    1289     5799     5801 1
    1290     7554     7556 1
    1291     9471     9473 1
    1292     7878     7880 1
    1293     5205     5207 1
    1294     5043     5045 1
    1295     6123     6125 1
    1296     9309     9311 1
    1297     5475     5477 1
    1298    11916    11917 1
    1299     1523     1524 1
    1300      177      178 1
    1301    11691    11692 1
    1302     2010     2011 1
    1303    10317    10319 1
    1304     2426     2405 1
    1305     2431     2432 1
    1306     2653     2654 1
    1307     1418     1419 1
    1308     3304     3305 1
    1309     2542     2543 1
    1310    11607    11609 1
    1311     5529     5530 1
    1312     4091     4092 1
    1313     2832     2835 1
    1314     9645     9647 1
    1315     6534     6536 1
    1316     7431     7432 1
    1317     9186     9187 1
    1318     8673     8674 1
    1319     9024     9025 1
    1320     1551     1552 1
    1321     2360     2361 1
    1322     2071     2072 1
    1323    11049    11050 1
    1324     2297     2298 1
    1325     4276     4277 1
    1326     1682     1683 1
    1327     9903     9904 1
    1328     9822     9823 1
    1329     1709     1710 1
    1330    11901    11902 1
    1331     9984     9985 1
    1332     2276     2277 1
    1333     3578     3579 1
    1334     3740     3741 1
    1335     3197     3198 1
    1336     3083     3084 1
    1337     7497     7499 1
    1338     5742     5744 1
    1339     9090     9092 1
    1340     9414     9416 1
    1341      938      939 1
    1342     3571     3572 1
    1343      262      263 1
    1344      410      411 1
    1345    11121    11123 1
    1346     1160     1161 1
    1347     1336     1337 1
    1348    10392    10394 1
    1349     1663     1664 1
    1350      299      300 1
    1351    10443    10445 1
    1352    10605    10607 1
    1353    11547    11548 1
    1354    11628    11629 1
    1355    11304    11305 1
    1356    10623    10624 1
    1357     1084     1085 1
    1358     7053     7055 1
    1359     8808     8810 1
    1360     7890     7892 1
    1361     8646     8648 1
    1362     5379     5381 1
    1363     5217     5219 1
    1364     5973     5975 1
    1365     1835     1834 1
    1366     1750     1751 1
    1367     2087     2088 1
    1368     1122     1121 1
    1369     6156     6158 1
    1370     4719     4720 1
    1371      790      791 1
    1372      228      229 1
    1373    10791    10793 1
    1374     1075     1076 1
    1375    10467    10469 1
    1376    10629    10631 1
    1377     6927     6929 1
    1378     6846     6848 1
    1379     6765     6767 1
    1380     7077     7079 1
    1381      812      814 1
    1382     9504     9505 1
    1383     5670     5671 1
    1384     5751     5752 1
    1385     4968     4969 1
    1386     7722     7723 1
    1387     7506     7507 1
    1388     3372     3374 1
    1389     4395     4397 1
    1390     1593     1594 1
    1391     1233     1234 1
    1392     5676     5678 1
    1393     8385     8386 1
    1394     8223     8224 1
    1395     9141     9142 1
    1396     5046     5047 1
    1397     4093     4094 1
    1398     7386     7387 1
    1399    10347    10349 1
    1400     3839     3840 1
    1401     2765     2766 1
    1402     6978     6980 1
    1403    10263    10264 1
    1404    11802    11803 1
    1405     6951     6952 1
    1406     6870     6871 1
    1407     8868     8869 1
    1408     8706     8707 1
    1409     1859     1860 1
    1410     4189     4190 1
    1411     8325     8326 1
    1412     6975     6977 1
    1413     8811     8813 1
    1414     9054     9056 1
    1415     6867     6869 1
    1416     8649     8651 1
    1417     8865     8867 1
    1418     3553     3554 1
    1419     8892     8894 1
    1420     7056     7058 1
    1421     3331     3332 1
    1422      696      697 1
    1423     3442     3443 1
    1424    10395    10396 1
    1425    10557    10558 1
    1426    11313    11314 1
    1427    11637    11638 1
    1428     6312     6313 1
    1429     6150     6151 1
    1430     7230     7231 1
    1431     4113     4114 1
    1432     8985     8986 1
    1433      821      822 1
    1434     8067     8068 1
    1435     2212     2213 1
    1436     8757     8758 1
    1437     1494     1496 1
    1438     9204     9206 1
    1439     9285     9287 1
    1440     7206     7208 1
    1441     9447     9449 1
    1442     7449     7451 1
    1443     9042     9044 1
    1444     5451     5453 1
    1445      346      347 1
    1446     4235     4234 1
    1447      714      715 1
    1448     2320     2321 1
    1449     1867     1856 1
    1450     4512     4514 1
    1451       25       26 1
    1452     1985     1986 1
    1453     4644     4646 1
    1454     4404     4406 1
    1455     4842     4843 1
    1456     6588     6589 1
    1457     8505     8506 1
    1458     4206     4207 1
    1459     3534     3535 1
    1460    11535    11536 1
    1461    11076    11077 1
    1462    10995    10996 1
    1463    11319    11320 1
    1464     2729     2730 1
    1465    10104    10105 1
    1466     9942     9943 1
    1467    11778    11779 1
    1468    11292    11293 1
    1469    10914    10915 1
    1470    10227    10228 1
    1471    11766    11767 1
    1472    11982    11983 1
    1473    10065    10066 1
    1474     9687     9688 1
    1475     9525     9526 1
    1476    11604    11605 1
    1477      737      738 1
    1478      733      734 1
    1479     1270     1271 1
    1480     4012     4013 1
    1481     2012     2013 1
    1482     2601     2602 1
    1483     3888     3889 1
    1484     4066     4067 1
    1485      376      375 1
    1486     4342     4343 1
    1487      475      476 1
    1488     2144     2145 1
    1489    10455    10457 1
    1490    11994    11996 1
    1491    10779    10781 1
    1492    10077    10079 1
    1493     2961     2962 1
    1494     3273     3274 1
    1495    11832    11834 1
    1496    10617    10619 1
    1497    10941    10943 1
    1498     5409     5410 1
    1499     7893     7894 1
    1500    10686    10688 1
    1501    11226    11228 1
    1502    11382    11383 1
    1503    10761    10762 1
    1504    11463    11464 1
    1505    11139    11140 1
    1506    10842    10843 1
    1507     9546     9547 1
    1508     1037     1038 1
    1509     2778     2781 1
    1510     2346     2349 1
    1511       32       31 1
    1512     2809     2808 1
    1513     4112     4101 1
    1514     1105     1106 1
    1515     1216     1217 1
    1516     1639     1640 1
    1517     2750     2729 1
    1518     2318     2297 1
    1519     3830     3809 1
    1520     4785     4786 1
    1521     3778     3779 1
    1522     2191     2192 1
    1523     2940     2942 1
    1524     1381     1380 1
    1525     3846     3847 1
    1526     1492     1471 1
    1527     7611     7612 1
    1528     5613     5614 1
    1529     9366     9367 1
    1530     7368     7369 1
    1531     9813     9814 1
    1532      197      198 1
    1533     9786     9787 1
    1534    11703    11704 1
    1535    11892    11893 1
    1536     9867     9868 1
    1537     9894     9895 1
    1538     9624     9625 1
    1539     9975     9976 1
    1540     9705     9706 1
    1541     3345     3346 1
    1542     2358     2359 1
    1543     3120     3121 1
    1544     2390     2391 1
    1545     3620     3621 1
    1546     2330     2331 1
    1547     9264     9265 1
    1548     3781     3782 1
    1549     6924     6925 1
    1550     9219     9220 1
    1551     5547     5548 1
    1552     6762     6763 1
    1553     7140     7141 1
    1554     1085     1086 1
    1555     4192     4193 1
    1556     6594     6596 1
    1557     8811     8812 1
    1558     8703     8704 1
    1559     9093     9095 1
    1560     9174     9176 1
    1561     9255     9257 1
    1562     7257     7259 1
    1563      142      143 1
    1564      715      716 1
    1565     1505     1504 1
    1566     1253     1254 1
    1567     9075     9077 1
    1568     5592     5594 1
    1569     7590     7592 1
    1570     9156     9158 1
    1571     7239     7241 1
    1572     9237     9239 1
    1573     7347     7349 1
    1574     9345     9347 1
    1575     8403     8404 1
    1576     5481     5483 1
    1577     8991     8993 1
    1578     9315     9317 1
    1579     4223     4222 1
    1580     9501     9503 1
    1581     4911     4913 1
    1582     3712     3713 1
    1583     8388     8389 1
    1584     8226     8227 1
    1585     7584     7586 1
    1586     5667     5669 1
    1587      764      766 1
    1588     8307     8308 1
    1589     2189     2188 1
    1590     3776     3755 1
    1591     3268     3269 1
    1592     4569     4571 1
    1593     4449     4451 1
    1594     3088     3089 1
    1595     3511     3512 1
    1596      956      957 1
    1597     3862     3863 1
    1598     4149     4150 1
    1599     6480     6481 1
    1600     8073     8074 1
    1601     8802     8803 1
    1602     4869     4870 1
    1603     8190     8191 1
    1604     7488     7489 1
    1605     5949     5950 1
    1606     9405     9406 1
    1607     5355     5356 1
    1608     2777     2778 1
    1609     5733     5734 1
    1610     8028     8029 1
    1611     8187     8188 1
    1612     5352     5353 1
    1613     5946     5947 1
    1614     8025     8026 1
    1615     2021     2022 1
    1616     8106     8107 1
    1617     2622     2621 1
    1618     2936     2937 1
    1619     4253     4254 1
    1620     2804     2805 1
    1621     2111     2112 1
    1622     1956     1957 1
    1623     2103     2104 1
    1624     1927     1928 1
    1625     3719     3720 1
    1626    10716    10718 1
    1627    11229    11231 1
    1628     1259     1260 1
    1629      407      408 1
    1630     1481     1482 1
    1631     1058     1059 1
    1632      296      297 1
    1633     1370     1371 1
    1634    10833    10835 1
    1635     9834     9836 1
    1636    11913    11915 1
    1637     1257     1258 1
    1638     4410     4411 1
    1639    11646    11647 1
    1640    11997    11998 1
    1641     9729     9730 1
    1642    10080    10081 1
    1643     4650     4651 1
    1644    11484    11485 1
    1645    11835    11836 1
    1646     1454     1455 1
    1647       62       65 1
    1648     9765     9766 1
    1649     9927     9928 1
    1650    11520    11521 1
    1651     9186     9188 1
    1652     7431     7433 1
    1653     8673     8675 1
    1654     9024     9026 1
    1655     6333     6334 1
    1656     1245     1246 1
    1657     4596     4597 1
    1658     1356     1357 1
    1659     2156     2157 1
    1660     1654     1633 1
    1661    12024    12026 1
    1662    10377    10379 1
    1663    11268    11270 1
    1664    10539    10541 1
    1665     4695     4697 1
    1666     4830     4831 1
    1667    11106    11108 1
    1668    11295    11297 1
    1669    11619    11621 1
    1670     1524     1525 1
    1671     7419     7421 1
    1672    11979    11981 1
    1673    10143    10145 1
    1674    10062    10064 1
    1675    10224    10226 1
    1676    10305    10307 1
    1677     2889     2890 1
    1678     5430     5432 1
    1679      957      958 1
    1680     3335     3336 1
    1681     1472     1473 1
    1682     1224     1225 1
    1683      903      904 1
    1684     1364     1365 1
    1685     1116     1117 1
    1686     8853     8854 1
    1687     7422     7423 1
    1688     5505     5506 1
    1689     9015     9016 1
    1690     7098     7099 1
    1691     3053     3054 1
    1692     8634     8635 1
    1693     9339     9340 1
    1694     1881     1870 1
    1695     1957     1958 1
    1696     2438     2439 1
    1697     1880     1869 1
    1698     3524     3525 1
    1699     2762     2763 1
    1700     2636     2637 1
    1701     4689     4691 1
    1702    11397    11398 1
    1703    11640    11641 1
    1704     9723     9724 1
    1705     9642     9643 1
    1706     9561     9562 1
    1707    11154    11155 1
    1708    11478    11479 1
    1709    11235    11236 1
    1710    11559    11560 1
    1711     1463     1464 1
    1712     6654     6655 1
    1713     4980     4981 1
    1714     8733     8734 1
    1715     7815     7816 1
    1716     3987     3988 1
    1717      980      983 1
    1718      872      875 1
    1719     7542     7544 1
    1720     9459     9461 1
    1721     7812     7814 1
    1722     4977     4979 1
    1723     5463     5465 1
    1724     9297     9299 1
    1725     3765     3766 1
    1726    10152    10153 1
    1727     9774     9775 1
    1728    11529    11530 1
    1729     9936     9937 1
    1730     4908     4909 1
    1731     9417     9418 1
    1732     9498     9499 1
    1733     7581     7582 1
    1734     5745     5746 1
    1735     7500     7501 1
    1736     5664     5665 1
    1737     7662     7663 1
    1738    10962    10964 1
    1739     1297     1300 1
    1740     6408     6409 1
    1741     1243     1246 1
    1742     2530     2531 1
    1743     9468     9469 1
    1744     5472     5473 1
    1745     7551     7552 1
    1746     9306     9307 1
    1747     2521     2522 1
    1748     7308     7309 1
    1749     2842     2843 1
    1750     4395     4396 1
    1751     7470     7471 1
    1752     9387     9388 1
    1753      319      320 1
    1754     3216     3217 1
    1755     1170     1171 1
    1756     2177     2180 1
    1757     1365     1366 1
    1758     4437     4438 1
    1759     6951     6953 1
    1760     8868     8870 1
    1761     6870     6872 1
    1762       77       78 1
    1763      726      727 1
    1764     1806     1807 1
    1765     8706     8708 1
    1766     2976     2977 1
    1767     3309     3310 1
    1768     9270     9271 1
    1769     3642     3643 1
    1770     5118     5119 1
    1771     2146     2135 1
    1772     3140     3141 1
    1773     4815     4817 1
    1774     4557     4559 1
    1775     9744     9745 1
    1776    10095    10096 1
    1777    11094    11095 1
    1778     9582     9583 1
    1779    10500    10501 1
    1780    11661    11662 1
    1781    12012    12013 1
    1782    11499    11500 1
    1783    10932    10933 1
    1784    11850    11851 1
    1785     2409     2410 1
    1786     3282     3283 1
    1787     3171     3172 1
    1788     3638     3635 1
    1789     2002     2003 1
    1790       47       48 1
    1791     1128     1129 1
    1792    11709    11710 1
    1793     9711     9712 1
    1794     9792     9793 1
    1795     9630     9631 1
    1796     9873     9874 1
    1797     1832     1833 1
    1798    10437    10438 1
    1799    10032    10033 1
    1800    11787    11788 1
    1801    10869    10870 1
    1802    10599    10600 1
    1803    11949    11950 1
    1804     4140     4129 1
    1805      497      498 1
    1806     6399     6401 1
    1807     4566     4567 1
    1808     1141     1142 1
    1809     1189     1192 1
    1810     1839     1828 1
    1811     4722     4724 1
    1812    11115    11117 1
    1813    11277    11279 1
    1814     5331     5333 1
    1815     1470     1471 1
    1816     8763     8765 1
    1817     8601     8603 1
    1818     6684     6686 1
    1819     1926     1927 1
    1820     8682     8684 1
    1821      942      943 1
    1822     1368     1369 1
    1823     9073     9072 1
    1824     5887     5886 1
    1825    10311    10312 1
    1826     7935     7936 1
    1827     5181     5182 1
    1828     5856     5857 1
    1829     7692     7693 1
    1830     9516     9517 1
    1831    10677    10678 1
    1832    11757    11758 1
    1833    11595    11596 1
    1834     7224     7225 1
    1835     6306     6307 1
    1836    10191    10192 1
    1837     4263     4264 1
    1838    11190    11191 1
    1839     8979     8980 1
    1840     6144     6145 1
    1841     8061     8062 1
    1842     4635     4637 1
    1843      251      250 1
    1844     1466     1468 1
    1845     9567     9568 1
    1846     4099     4100 1
    1847     1758     1759 1
    1848     2380     2381 1
    1849     1124     1125 1
    1850      479      480 1
    1851      917      918 1
    1852     9201     9203 1
    1853     9444     9446 1
    1854     7203     7205 1
    1855     5448     5450 1
    1856     7446     7448 1
    1857     9039     9041 1
    1858     9282     9284 1
    1859     6402     6403 1
    1860    10719    10720 1
    1861    11043    11044 1
    1862     9882     9883 1
    1863     9720     9721 1
    1864     8079     8080 1
    1865     1958     1959 1
    1866     7611     7613 1
    1867     5613     5615 1
    1868     9366     9368 1
    1869     7368     7370 1
    1870    10452    10454 1
    1871    10776    10778 1
    1872      571      572 1
    1873    11532    11534 1
    1874    10614    10616 1
    1875     1099     1100 1
    1876     2523     2522 1
    1877     2241     2242 1
    1878     4105     4106 1
    1879    10584    10586 1
    1880     3301     3302 1
    1881     2758     2759 1
    1882     3976     3977 1
    1883     3412     3413 1
    1884        5        4 1
    1885     6924     6926 1
    1886      294      295 1
    1887     9219     9221 1
    1888     5547     5549 1
    1889     6762     6764 1
    1890     7156     7155 1
    1891     7140     7142 1
    1892     4033     4034 1
    1893     3630     3631 1
    1894     4188     4187 1
    1895     2369     2370 1
    1896     4197     4186 1
    1897     3161     3162 1
    1898     9309     9310 1
    1899     5475     5476 1
    1900     4359     4360 1
    1901     4260     4261 1
    1902     7125     7127 1
    1903    10173    10174 1
    1904    10011    10012 1
    1905     2486     2487 1
    1906     3896     3897 1
    1907     2270     2271 1
    1908     2198     2199 1
    1909     2975     2976 1
    1910     4320     4321 1
    1911     2752     2754 1
    1912     1607     1608 1
    1913     8226     8228 1
    1914     8307     8309 1
    1915     8388     8390 1
    1916     1943     1942 1
    1917    10053    10054 1
    1918    11970    11971 1
    1919     9783     9784 1
    1920    11700    11701 1
    1921    10215    10216 1
    1922     1149     1150 1
    1923     9621     9622 1
    1924     1839     1840 1
    1925     1195     1196 1
    1926    11172    11174 1
    1927    11253    11255 1
    1928    10656    10657 1
    1929    11196    11197 1
    1930     2869     2870 1
    1931     5352     5354 1
    1932     8025     8027 1
    1933     8187     8189 1
    1934     5946     5948 1
    1935     8106     8108 1
    1936     1753     1754 1
    1937     1680     1681 1
    1938      709      710 1
    1939      663      664 1
    1940      277      278 1
    1941     9789     9791 1
    1942    10059    10061 1
    1943    11976    11978 1
    1944    11706    11708 1
    1945    10221    10223 1
    1946     3588     3589 1
    1947     9627     9629 1
    1948     4307     4306 1
    1949    11322    11324 1
    1950    11052    11054 1
    1951     2737     2738 1
    1952    10971    10973 1
    1953     3499     3500 1
    1954    10809    10811 1
    1955     2962     2963 1
    1956     4458     4460 1
    1957    10278    10280 1
    1958    11736    11738 1
    1959     1823     1824 1
    1960     1294     1295 1
    1961    10197    10199 1
    1962     1318     1319 1
    1963       21       22 1
    1964      132      133 1
    1965    11817    11819 1
    1966    10359    10361 1
    1967     8115     8117 1
    1968      311      312 1
    1969      860      861 1
    1970     5103     5104 1
    1971     7938     7939 1
    1972     8316     8317 1
    1973     4854     4856 1
    1974     6832     6831 1
    1975     1705     1704 1
    1976     1665     1666 1
    1977     1443     1444 1
    1978     1520     1521 1
    1979     9114     9115 1
    1980     7278     7279 1
    1981     7035     7036 1
    1982     1316     1317 1
    1983     3956     3957 1
    1984     7116     7117 1
    1985      998      999 1
    1986     8955     8957 1
    1987     3035     3036 1
    1988     4488     4489 1
    1989     4416     4417 1
    1990     2588     2589 1
    1991     4392     4393 1
    1992     3354     3353 1
    1993     5718     5719 1
    1994     3465     3464 1
    1995     4147     4148 1
    1996    10047    10048 1
    1997    10209    10210 1
    1998    11964    11965 1
    1999     7677     7678 1
    2000      599      600 1
    2001     8679     8680 1
    2002     4383     4385 1
    2003     4875     4877 1
    2004      485      486 1
    2005     4923     4925 1
    2006     5004     5006 1
    2007     9162     9164 1
    2008     7758     7760 1
    2009     9081     9083 1
    2010     5679     5681 1
    2011     9243     9245 1
    2012     7515     7517 1
    2013     5922     5924 1
    2014     5760     5762 1
    2015     3433     3435 1
    2016     1466     1469 1
    2017    10908    10909 1
    2018    10746    10747 1
    2019    10665    10666 1
    2020     8877     8878 1
    2021     6393     6394 1
    2022     3291     3292 1
    2023     6555     6556 1
    2024     6960     6961 1
    2025     5781     5783 1
    2026     6105     6107 1
    2027     6474     6475 1
    2028     6879     6880 1
    2029     5565     5567 1
    2030     5187     5189 1
    2031     5025     5027 1
    2032     7320     7322 1
    2033     7860     7862 1
    2034     5403     5405 1
    2035     3068     3067 1
    2036     6165     6166 1
    2037     7422     7424 1
    2038     8853     8855 1
    2039     5505     5507 1
    2040     8145     8146 1
    2041     6228     6229 1
    2042     8064     8065 1
    2043     6147     6148 1
    2044     4587     4588 1
    2045     6309     6310 1
    2046     7983     7984 1
    2047     5310     5311 1
    2048      316      317 1
    2049     1078     1079 1
    2050     2041     2040 1
    2051     9456     9458 1
    2052     1403     1404 1
    2053     2168     2169 1
    2054     1568     1570 1
    2055      317      318 1
    2056     4210     4199 1
    2057     1708     1709 1
    2058     1067     1068 1
    2059      304      305 1
    2060      170      171 1
    2061     8562     8563 1
    2062     8400     8401 1
    2063     6483     6484 1
    2064     8157     8158 1
    2065     8319     8320 1
    2066     6321     6322 1
    2067     1689     1691 1
    2068     8154     8155 1
    2069      276      275 1
    2070     6654     6656 1
    2071     7815     7817 1
    2072     4980     4982 1
    2073     8733     8735 1
    2074    11153    11151 1
    2075     1168     1147 1
    2076    11292    11294 1
    2077     1602     1603 1
    2078    10794    10795 1
    2079     4880     4878 1
    2080     3444     3445 1
    2081     3800     3798 1
    2082    10470    10471 1
    2083     3336     3337 1
    2084     2910     2911 1
    2085    11550    11551 1
    2086     3003     3004 1
    2087     2463     2464 1
    2088     2262     2263 1
    2089     2015     2016 1
    2090    11067    11068 1
    2091    10878    10879 1
    2092    10338    10339 1
    2093     2700     2701 1
    2094     2499     2500 1
    2095     2274     2275 1
    2096     3456     3457 1
    2097     2268     2269 1
    2098     5472     5474 1
    2099     9306     9308 1
    2100     7470     7472 1
    2101     7551     7553 1
    2102     9387     9389 1
    2103     9468     9470 1
    2104     1456     1457 1
    2105      583      584 1
    2106     1234     1235 1
    2107     7308     7310 1
    2108     1594     1595 1
    2109      947      948 1
    2110     4008     4009 1
    2111    11751    11753 1
    2112    10671    10673 1
    2113    11589    11591 1
    2114    10185    10187 1
    2115     4138     4139 1
    2116     2301     2302 1
    2117     2637     2638 1
    2118     2526     2527 1
    2119     9672     9674 1
    2120     1900     1901 1
    2121     1016     1017 1
    2122    10902    10904 1
    2123    10740    10742 1
    2124    10659    10661 1
    2125      814      815 1
    2126     8490     8492 1
    2127     2502     2504 1
    2128    11733    11734 1
    2129    11814    11815 1
    2130     7413     7414 1
    2131     6021     6023 1
    2132     1120     1121 1
    2133     1501     1502 1
    2134     1390     1391 1
    2135      427      428 1
    2136     4119     4120 1
    2137     2406     2407 1
    2138     2503     2504 1
    2139     1179     1180 1
    2140      417      418 1
    2141     1068     1069 1
    2142     4347     4348 1
    2143     1970     1971 1
    2144     4145     4146 1
    2145     2442     2443 1
    2146     3192     3193 1
    2147     3294     3295 1
    2148    10991    10989 1
    2149     1671     1672 1
    2150     1017     1018 1
    2151    10181    10179 1
    2152    11028    11029 1
    2153    10488    10489 1
    2154     4284     4285 1
    2155     2042     2043 1
    2156     2589     2590 1
    2157      494      496 1
    2158     2549     2550 1
    2159     3623     3624 1
    2160     3836     3837 1
    2161     4023     4024 1
    2162     3599     3600 1
    2163     1627     1626 1
    2164     1132     1131 1
    2165     1937     1926 1
    2166     2448     2450 1
    2167     1931     1932 1
    2168     6060     6061 1
    2169     5142     5143 1
    2170     8895     8896 1
    2171     5898     5899 1
    2172     6978     6979 1
    2173     9057     9058 1
    2174     4683     4684 1
    2175     6816     6817 1
    2176     1196     1199 1
    2177     1349     1350 1
    2178     1598     1599 1
    2179     3425     3426 1
    2180     5853     5855 1
    2181     7932     7934 1
    2182     5097     5099 1
    2183     8121     8123 1
    2184     2364     2365 1
    2185     7122     7123 1
    2186     3945     3946 1
    2187      868      869 1
    2188     9210     9212 1
    2189     8292     8294 1
    2190     5538     5540 1
    2191     7131     7133 1
    2192     4280     4269 1
    2193     1194     1193 1
    2194     1438     1417 1
    2195     7935     7937 1
    2196     5856     5858 1
    2197     5181     5183 1
    2198     5364     5365 1
    2199     8199     8200 1
    2200     4959     4960 1
    2201     7632     7633 1
    2202     5634     5635 1
    2203     5958     5959 1
    2204     5715     5716 1
    2205     4635     4636 1
    2206     7713     7714 1
    2207     8037     8038 1
    2208      673      674 1
    2209      424      425 1
    2210     2912     2891 1
    2211     3403     3404 1
    2212     2551     2552 1
    2213     1397     1398 1
    2214     2980     2981 1
    2215     4791     4793 1
    2216     4710     4712 1
    2217     2329     2330 1
    2218     3631     3632 1
    2219     4313     4314 1
    2220     2096     2097 1
    2221     6834     6835 1
    2222     6915     6916 1
    2223     6753     6754 1
    2224     1519     1520 1
    2225     4680     4681 1
    2226     4761     4762 1
    2227     9078     9079 1
    2228     5595     5596 1
    2229     9240     9241 1
    2230     5401     5400 1
    2231     7350     7351 1
    2232     5077     5076 1
    2233     3627     3626 1
    2234     1646     1647 1
    2235      773      774 1
    2236     1309     1310 1
    2237      572      573 1
    2238     3929     3930 1
    2239     2108     2109 1
    2240     9741     9742 1
    2241    11496    11497 1
    2242    11658    11659 1
    2243    11415    11416 1
    2244     9579     9580 1
    2245     8055     8056 1
    2246    11577    11578 1
    2247     9660     9661 1
    2248     4015     4004 1
    2249     4103     4102 1
    2250     2224     2223 1
    2251     4011     4012 1
    2252     1240     1241 1
    2253      871      872 1
    2254     4602     4603 1
    2255    10269    10270 1
    2256      933      934 1
    2257     4554     4555 1
    2258     2615     2616 1
    2259     9837     9838 1
    2260      825      826 1
    2261     2569     2570 1
    2262      473      474 1
    2263    11118    11120 1
    2264    11280    11282 1
    2265      285      286 1
    2266     3210     3212 1
    2267     1223     1224 1
    2268      251      252 1
    2269     2035     2036 1
    2270     5517     5519 1
    2271     1248     1249 1
    2272     1681     1682 1
    2273    11922    11924 1
    2274     9843     9845 1
    2275     1062     1064 1
    2276      283      304 1
    2277     3070     3071 1
    2278    10755    10757 1
    2279     3391     3392 1
    2280    10836    10838 1
    2281     2518     2519 1
    2282     1632     1633 1
    2283     1498     1499 1
    2284      742      743 1
    2285     3242     3241 1
    2286     1514     1516 1
    2287     9087     9089 1
    2288     9168     9170 1
    2289     9249     9251 1
    2290     7251     7253 1
    2291     2825     2828 1
    2292      429      430 1
    2293      741      742 1
    2294     3581     3584 1
    2295      828      829 1
    2296     1164     1165 1
    2297     1976     1977 1
    2298     8749     8748 1
    2299     6670     6669 1
    2300     7318     7317 1
    2301     2426     2427 1
    2302     5937     5938 1
    2303     5694     5695 1
    2304     7530     7531 1
    2305     5775     5776 1
    2306     5019     5020 1
    2307     5532     5533 1
    2308     7773     7774 1
    2309     4938     4939 1
    2310     8547     8548 1
    2311     5631     5632 1
    2312     6792     6793 1
    2313     6630     6631 1
    2314     7710     7711 1
    2315     3470     3471 1
    2316      721      722 1
    2317     3245     3246 1
    2318     3782     3783 1
    2319      727      728 1
    2320      168      169 1
    2321       36       38 1
    2322     9831     9832 1
    2323    10506    10507 1
    2324    11910    11911 1
    2325     4084     4073 1
    2326     2062     2051 1
    2327     1797     1798 1
    2328     1457     1458 1
    2329     6570     6572 1
    2330     8487     8489 1
    2331     6732     6734 1
    2332     2257     2258 1
    2333     2368     2369 1
    2334     2794     2795 1
    2335      494      497 1
    2336     3114     3115 1
    2337     3258     3260 1
    2338     8472     8473 1
    2339     8796     8797 1
    2340     6717     6718 1
    2341     4962     4963 1
    2342     7635     7636 1
    2343     6888     6890 1
    2344     6645     6647 1
    2345    11730    11732 1
    2346    11811    11813 1
    2347     8958     8959 1
    2348    11217    11219 1
    2349     8724     8726 1
    2350     3477     3478 1
    2351     1520     1522 1
    2352     3688     3687 1
    2353     7821     7822 1
    2354     4986     4987 1
    2355     6660     6661 1
    2356     8739     8740 1
    2357     3825     3824 1
    2358     4488     4490 1
    2359     4392     4394 1
    2360     4416     4418 1
    2361     1028     1030 1
    2362     3745     3746 1
    2363      836      835 1
    2364      614      613 1
    2365      302      301 1
    2366     7293     7294 1
    2367     5052     5053 1
    2368     7455     7456 1
    2369    10242    10243 1
    2370     7725     7726 1
    2371     5808     5809 1
    2372     9372     9373 1
    2373     7182     7183 1
    2374     9018     9019 1
    2375     1600     1601 1
    2376     5346     5347 1
    2377     8679     8681 1
    2378    11607    11608 1
    2379     1227     1228 1
    2380      915      916 1
    2381     3206     3207 1
    2382     3923     3924 1
    2383     2720     2718 1
    2384     4179     4180 1
    2385     3471     3472 1
    2386     3783     3784 1
    2387     3894     3895 1
    2388     3354     3355 1
    2389     3465     3466 1
    2390     2196     2197 1
    2391      910      909 1
    2392     3818     3819 1
    2393     2077     2078 1
    2394     4587     4589 1
    2395     6228     6230 1
    2396     8145     8147 1
    2397     3469     3470 1
    2398     6309     6311 1
    2399     8064     8066 1
    2400     6147     6149 1
    2401     5310     5312 1
    2402     7983     7985 1
    2403     1084     1081 1
    2404       12       13 1
    2405     3681     3682 1
    2406     4167     4168 1
    2407    11358    11359 1
    2408    10818    10819 1
    2409     5427     5428 1
    2410    10980    10981 1
    2411     9603     9604 1
    2412    11166    11167 1
    2413    11247    11248 1
    2414     4590     4591 1
    2415     2217     2218 1
    2416     4323     4324 1
    2417     9900     9902 1
    2418    10440    10442 1
    2419    11898    11900 1
    2420    10521    10523 1
    2421     9819     9821 1
    2422    10602    10604 1
    2423      542      544 1
    2424     9981     9983 1
    2425     4108     4109 1
    2426     9693     9695 1
    2427     9384     9386 1
    2428     7305     7307 1
    2429     7953     7955 1
    2430     5280     5282 1
    2431     7791     7793 1
    2432     6036     6038 1
    2433     7467     7469 1
    2434     5118     5120 1
    2435     1149     1151 1
    2436     1473     1475 1
    2437     1176     1177 1
    2438     1816     1817 1
    2439      807      808 1
    2440      440      441 1
    2441     9123     9124 1
    2442     7287     7288 1
    2443     7044     7045 1
    2444     7125     7126 1
    2445     8871     8872 1
    2446     1643     1644 1
    2447     6954     6955 1
    2448     6387     6388 1
    2449     6873     6874 1
    2450     6549     6550 1
    2451     3953     3954 1
    2452     4425     4426 1
    2453     3453     3454 1
    2454     8628     8629 1
    2455     2793     2794 1
    2456     3867     3868 1
    2457     2367     2368 1
    2458     1034     1036 1
    2459     3576     3575 1
    2460     2403     2404 1
    2461     9236     9234 1
    2462     2225     2226 1
    2463     2559     2560 1
    2464     8580     8582 1
    2465     6096     6098 1
    2466     6258     6260 1
    2467     8175     8177 1
    2468     5259     5261 1
    2469     6339     6341 1
    2470     6501     6503 1
    2471     8418     8420 1
    2472     8337     8339 1
    2473     8013     8015 1
    2474     8346     8347 1
    2475     4000     3989 1
    2476    10827    10828 1
    2477    11070    11071 1
    2478        8        9 1
    2479    10989    10990 1
    2480     2266     2268 1
    2481     3562     3564 1
    2482     9514     9513 1
    2483     3491     3490 1
    2484     1740     1729 1
    2485     3385     3386 1
    2486     3166     3167 1
    2487    10668    10670 1
    2488      856      857 1
    2489    10857    10859 1
    2490    10938    10940 1
    2491     3911     3912 1
    2492     3213     3214 1
    2493    10314    10316 1
    2494     2548     2549 1
    2495     4752     4754 1
    2496     2165     2166 1
    2497     4500     4502 1
    2498     5625     5626 1
    2499     7704     7705 1
    2500     2993     2994 1
    2501     2947     2948 1
    2502     5898     5900 1
    2503     5142     5144 1
    2504     8895     8897 1
    2505     6216     6217 1
    2506     8133     8134 1
    2507     6297     6298 1
    2508     5298     5299 1
    2509     7971     7972 1
    2510     3800     3797 1
    2511      510      511 1
    2512     6135     6136 1
    2513     8052     8053 1
    2514     2325     2324 1
    2515     2847     2848 1
    2516    10667    10665 1
    2517     1584     1585 1
    2518    10782    10783 1
    2519     4959     4961 1
    2520     5364     5366 1
    2521     5958     5960 1
    2522     8199     8201 1
    2523     2758     2757 1
    2524      290      291 1
    2525      830      831 1
    2526      181      182 1
    2527     5634     5636 1
    2528     7713     7715 1
    2529      518      519 1
    2530      692      693 1
    2531    11346    11348 1
    2532    10158    10160 1
    2533     9996     9998 1
    2534    10509    10511 1
    2535    11157    11159 1
    2536     9591     9593 1
    2537     3990     3991 1
    2538     1824     1813 1
    2539    11088    11089 1
    2540    12006    12007 1
    2541    11844    11845 1
    2542    10926    10927 1
    2543    10089    10090 1
    2544     1687     1688 1
    2545      106      105 1
    2546      544      545 1
    2547      684      685 1
    2548     9078     9080 1
    2549     5595     5597 1
    2550     9240     9242 1
    2551     7350     7352 1
    2552     9261     9263 1
    2553     8127     8129 1
    2554     9180     9182 1
    2555     4941     4943 1
    2556     8019     8021 1
    2557     5697     5699 1
    2558     9816     9818 1
    2559     8046     8048 1
    2560    10329    10331 1
    2561     9897     9899 1
    2562     9978     9980 1
    2563    11895    11897 1
    2564      700      701 1
    2565     4133     4134 1
    2566     3718     3719 1
    2567     3607     3608 1
    2568     3382     3383 1
    2569     6750     6751 1
    2570      336      337 1
    2571      434      436 1
    2572     1818     1819 1
    2573     1283     1284 1
    2574     1289     1290 1
    2575      746      747 1
    2576     1542     1541 1
    2577      131      130 1
    2578      287      285 1
    2579     2292     2294 1
    2580     3627     3628 1
    2581      284      285 1
    2582     3290     3291 1
    2583     4117     4118 1
    2584     1325     1326 1
    2585      788      789 1
    2586      989      990 1
    2587       62       64 1
    2588     4677     4679 1
    2589     2117     2118 1
    2590     4851     4853 1
    2591    10074    10075 1
    2592    11991    11992 1
    2593    11829    11830 1
    2594     3724     3726 1
    2595     6030     6032 1
    2596     4686     4688 1
    2597     4767     4769 1
    2598     1865     1866 1
    2599     7902     7904 1
    2600     3431     3432 1
    2601     2797     2798 1
    2602     2575     2576 1
    2603     2686     2687 1
    2604     1034     1037 1
    2605     3661     3662 1
    2606     3772     3773 1
    2607    12015    12016 1
    2608    11853    11854 1
    2609    10098    10099 1
    2610     7743     7744 1
    2611     6366     6367 1
    2612     5826     5827 1
    2613     5070     5071 1
    2614     8283     8284 1
    2615     6204     6205 1
    2616    11919    11921 1
    2617     9840     9842 1
    2618    10839    10841 1
    2619     5859     5861 1
    2620     5337     5339 1
    2621     5937     5939 1
    2622     5694     5696 1
    2623     2305     2306 1
    2624     7530     7532 1
    2625     5019     5021 1
    2626     5775     5777 1
    2627     5532     5534 1
    2628     7773     7775 1
    2629     4938     4940 1
    2630     2428     2429 1
    2631     2244     2245 1
    2632     3832     3833 1
    2633     3754     3755 1
    2634     3529     3530 1
    2635     8589     8590 1
    2636     8751     8752 1
    2637     8670     8671 1
    2638     1209     1208 1
    2639     6672     6673 1
    2640     4356     4358 1
    2641     3588     3591 1
    2642    11943    11944 1
    2643     4509     4510 1
    2644     1750     1749 1
    2645     9153     9154 1
    2646     2884     2885 1
    2647     4335     4336 1
    2648     6777     6778 1
    2649     3743     3746 1
    2650     1908     1897 1
    2651     2463     2461 1
    2652     3219     3217 1
    2653     2077     2066 1
    2654     4052     4053 1
    2655     1106     1107 1
    2656     2116     2117 1
    2657    11334    11335 1
    2658     1169     1170 1
    2659     3009     3010 1
    2660     3546     3547 1
    2661     1483     1484 1
    2662     2594     2595 1
    2663     1842     1843 1
    2664     3468     3469 1
    2665     2283     2284 1
    2666     2706     2707 1
    2667     3357     3358 1
    2668     3973     3962 1
    2669      262      261 1
    2670     3591     3592 1
    2671     2556     2558 1
    2672     3312     3314 1
    2673     4986     4988 1
    2674     7821     7823 1
    2675     6660     6662 1
    2676     8739     8741 1
    2677     1808     1809 1
    2678     1379     1380 1
    2679      580      581 1
    2680       79       80 1
    2681     1157     1158 1
    2682     1490     1491 1
    2683      190      191 1
    2684     6477     6479 1
    2685     2853     2854 1
    2686     2412     2413 1
    2687     3174     3175 1
    2688     2742     2743 1
    2689     3705     3706 1
    2690     3325     3326 1
    2691     3587     3588 1
    2692     3541     3542 1
    2693     3371     3372 1
    2694     3504     3505 1
    2695    10119    10121 1
    2696    11874    11876 1
    2697     9957     9959 1
    2698      438      439 1
    2699    10956    10958 1
    2700    11274    11275 1
    2701    12030    12031 1
    2702    11112    11113 1
    2703     1860     1861 1
    2704     5913     5915 1
    2705     3696     3697 1
    2706     1961     1962 1
    2707      849      848 1
    2708    11283    11285 1
    2709     1049     1050 1
    2710     1186     1187 1
    2711      355      356 1
    2712      218      220 1
    2713     3941     3942 1
    2714     3162     3163 1
    2715     2914     2915 1
    2716      861      862 1
    2717     1173     1174 1
    2718     3640     3641 1
    2719     2616     2618 1
    2720     4321     4322 1
    2721     2766     2767 1
    2722     6423     6424 1
    2723     8259     8260 1
    2724     6018     6019 1
    2725     5343     5344 1
    2726    10407    10408 1
    2727    10434    10435 1
    2728    10245    10246 1
    2729    10596    10597 1
    2730    11244    11245 1
    2731     1433     1434 1
    2732      239      240 1
    2733     1525     1526 1
    2734     1322     1323 1
    2735     8973     8974 1
    2736     1963     1964 1
    2737     1153     1154 1
    2738     1705     1706 1
    2739     2873     2874 1
    2740    11403    11404 1
    2741     4566     4568 1
    2742     1767     1768 1
    2743     3574     3575 1
    2744     2494     2495 1
    2745     3037     3038 1
    2746     9111     9112 1
    2747     7275     7276 1
    2748     7032     7033 1
    2749     7113     7114 1
    2750     1831     1832 1
    2751      570      571 1
    2752     1735     1736 1
    2753     4467     4469 1
    2754     1451     1452 1
    2755     3855     3856 1
    2756      377      378 1
    2757      470      471 1
    2758     8661     8663 1
    2759     8823     8825 1
    2760     8904     8906 1
    2761     6987     6989 1
    2762     1125     1126 1
    2763     7068     7070 1
    2764     9066     9068 1
    2765     6825     6827 1
    2766     3943     3944 1
    2767     8886     8888 1
    2768     8805     8807 1
    2769     8643     8645 1
    2770     9048     9050 1
    2771     7050     7052 1
    2772     6969     6971 1
    2773     6807     6809 1
    2774    11859    11860 1
    2775     1923     1912 1
    2776      440      442 1
    2777     9123     9125 1
    2778     7287     7289 1
    2779     5148     5149 1
    2780     9063     9064 1
    2781     8901     8902 1
    2782     5904     5905 1
    2783     6066     6067 1
    2784     6984     6985 1
    2785     4467     4468 1
    2786     6822     6823 1
    2787    11451    11453 1
    2788    11127    11129 1
    2789      135      136 1
    2790     9534     9536 1
    2791    10908    10910 1
    2792     2434     2435 1
    2793     2983     2984 1
    2794     2323     2324 1
    2795     1276     1277 1
    2796      844      845 1
    2797     2872     2873 1
    2798     4944     4945 1
    2799     4380     4382 1
    2800     5862     5863 1
    2801     2227     2228 1
    2802     4250     4251 1
    2803     2722     2723 1
    2804     7887     7888 1
    2805     5214     5215 1
    2806     5700     5701 1
    2807     7617     7618 1
    2808     3262     3263 1
    2809     4533     4534 1
    2810     9126     9127 1
    2811     7533     7534 1
    2812     6102     6103 1
    2813     7920     7921 1
    2814     5841     5842 1
    2815     5166     5167 1
    2816     7839     7840 1
    2817     2623     2624 1
    2818     8208     8209 1
    2819     5085     5086 1
    2820     3553     3552 1
    2821     8214     8215 1
    2822     8295     8296 1
    2823     2720     2717 1
    2824     8376     8377 1
    2825     3442     3441 1
    2826     3402     3403 1
    2827     2328     2329 1
    2828     1602     1604 1
    2829     9537     9538 1
    2830    11373    11374 1
    2831    11130    11131 1
    2832    11454    11455 1
    2833     4279     4280 1
    2834     4103     4104 1
    2835     1918     1919 1
    2836     1615     1616 1
    2837     3707     3708 1
    2838     4134     4135 1
    2839     2272     2273 1
    2840    11904    11906 1
    2841    10527    10529 1
    2842    10446    10448 1
    2843     9825     9827 1
    2844     9906     9908 1
    2845    10608    10610 1
    2846     9987     9989 1
    2847      905      906 1
    2848      482      483 1
    2849     1442     1443 1
    2850      908      909 1
    2851     3674     3675 1
    2852     1556     1557 1
    2853     1019     1020 1
    2854     1241     1242 1
    2855      229      250 1
    2856    10872    10873 1
    2857    10332    10333 1
    2858     7971     7973 1
    2859     6216     6218 1
    2860     6297     6299 1
    2861     8133     8135 1
    2862     5298     5300 1
    2863     6135     6137 1
    2864     8052     8054 1
    2865     4524     4525 1
    2866    10029    10031 1
    2867     3022     3024 1
    2868    10383    10385 1
    2869    10545    10547 1
    2870    11301    11303 1
    2871    11625    11627 1
    2872     1577     1578 1
    2873     3966     3967 1
    2874     4136     4137 1
    2875     2416     2417 1
    2876      660      661 1
    2877    11331    11333 1
    2878    11952    11954 1
    2879     9954     9956 1
    2880    11790    11792 1
    2881    11871    11873 1
    2882     2049     2050 1
    2883    10035    10037 1
    2884    10116    10118 1
    2885     6081     6083 1
    2886     3562     3563 1
    2887      636      637 1
    2888     1287     1288 1
    2889      525      526 1
    2890     9969     9971 1
    2891     3548     3549 1
    2892     2585     2586 1
    2893     2474     2475 1
    2894     1040     1041 1
    2895      792      793 1
    2896     6963     6964 1
    2897     8718     8719 1
    2898     6558     6559 1
    2899     8880     8881 1
    2900     6396     6397 1
    2901     6882     6883 1
    2902     8637     8638 1
    2903     6477     6478 1
    2904     2161     2162 1
    2905     2796     2797 1
    2906     2682     2683 1
    2907     4223     4224 1
    2908     2685     2686 1
    2909     3555     3556 1
    2910     2702     2703 1
    2911     4863     4865 1
    2912     1773     1774 1
    2913     9003     9004 1
    2914     7437     7438 1
    2915     8841     8842 1
    2916     9192     9193 1
    2917     7086     7087 1
    2918     9030     9031 1
    2919     4599     4601 1
    2920     4794     4796 1
    2921      548      551 1
    2922     8271     8273 1
    2923     6246     6248 1
    2924     6273     6275 1
    2925     5247     5249 1
    2926     6354     6356 1
    2927     8001     8003 1
    2928     3337     3338 1
    2929     3004     3005 1
    2930     2464     2465 1
    2931     8082     8084 1
    2932    11622    11623 1
    2933    10341    10342 1
    2934      638      637 1
    2935    10380    10382 1
    2936    10542    10544 1
    2937    10866    10868 1
    2938    10326    10328 1
    2939     1137     1138 1
    2940     7371     7373 1
    2941     8370     8372 1
    2942     4243     4244 1
    2943     2397     2398 1
    2944     2574     2573 1
    2945      892      893 1
    2946     1935     1936 1
    2947     2665     2666 1
    2948     3043     3044 1
    2949     7344     7346 1
    2950     5157     5158 1
    2951      167      166 1
    2952     4332     4333 1
    2953     1944     1945 1
    2954     2649     2650 1
    2955     2760     2761 1
    2956     3093     3094 1
    2957    10829    10827 1
    2958     9722     9720 1
    2959     2450     2451 1
    2960     2774     2775 1
    2961     3318     3319 1
    2962      242      243 1
    2963     8460     8461 1
    2964    10392    10393 1
    2965    11121    11122 1
    2966    10554    10555 1
    2967     6420     6421 1
    2968    11283    11284 1
    2969     3240     3241 1
    2970     3789     3790 1
    2971     2277     2278 1
    2972     3089     3090 1
    2973     3027     3028 1
    2974     3039     3040 1
    2975     2295     2296 1
    2976     2644     2646 1
    2977     2945     2944 1
    2978     3603     3604 1
    2979     4299     4300 1
    2980     2532     2533 1
    2981     2310     2311 1
    2982     2733     2734 1
    2983     4305     4306 1
    2984    10413    10414 1
    2985    11412    11413 1
    2986    10251    10252 1
    2987    10575    10576 1
    2988    11574    11575 1
    2989    11250    11251 1
    2990     9657     9658 1
    2991    10326    10327 1
    2992     6735     6737 1
    2993     4476     4477 1
    2994     9045     9047 1
    2995     8937     8939 1
    2996     1527     1528 1
    2997     3426     3429 1
    2998     3480     3481 1
    2999      887      886 1
    3000      643      644 1
    3001     2512     2513 1
    3002    11178    11180 1
    3003    11718    11720 1
    3004     6657     6659 1
    3005     6900     6902 1
    3006    10449    10451 1
    3007    10611    10613 1
    3008    10530    10532 1
    3009     8736     8738 1
    3010     1155     1156 1
    3011     2832     2834 1
    3012     4692     4694 1
    3013     4773     4775 1
    3014     3516     3515 1
    3015     1708     1687 1
    3016    10137    10138 1
    3017    10731    10732 1
    3018    10893    10894 1
    3019    10299    10300 1
    3020     8277     8278 1
    3021     1313     1314 1
    3022     6360     6361 1
    3023     1112     1113 1
    3024     5064     5065 1
    3025     5820     5821 1
    3026     7737     7738 1
    3027     6198     6199 1
    3028     5715     5717 1
    3029     1769     1758 1
    3030     1682     1684 1
    3031     2309     2310 1
    3032     3383     3384 1
    3033     4061     4062 1
    3034     3460     3461 1
    3035     8067     8069 1
    3036     7230     7232 1
    3037     6312     6314 1
    3038     8985     8987 1
    3039     6150     6152 1
    3040    10422    10423 1
    3041    10260    10261 1
    3042    10584    10585 1
    3043    11940    11941 1
    3044     1278     1280 1
    3045     8259     8261 1
    3046     6423     6425 1
    3047     2629     2630 1
    3048     3709     3710 1
    3049     2635     2636 1
    3050     5343     5345 1
    3051     4238     4227 1
    3052     6018     6020 1
    3053     6180     6182 1
    3054     1811     1812 1
    3055    11721    11723 1
    3056    10182    10184 1
    3057     3884     3863 1
    3058    10344    10346 1
    3059      606      607 1
    3060     3082     3083 1
    3061     4155     4144 1
    3062     4146     4147 1
    3063     4725     4727 1
    3064     3478     3479 1
    3065     3367     3368 1
    3066     5100     5102 1
    3067     5598     5599 1
    3068     8163     8164 1
    3069     9351     9352 1
    3070     7596     7597 1
    3071     6327     6328 1
    3072      188      189 1
    3073     9111     9113 1
    3074      837      838 1
    3075     8160     8161 1
    3076     8835     8836 1
    3077     7404     7405 1
    3078     6243     6244 1
    3079     7275     7277 1
    3080      840      841 1
    3081     8997     8998 1
    3082     7080     7081 1
    3083     6081     6082 1
    3084     8322     8323 1
    3085     3087     3088 1
    3086     2337     2338 1
    3087     2862     2863 1
    3088     1907     1908 1
    3089     3662     3663 1
    3090     3656     3657 1
    3091     4270     4271 1
    3092     2047     2048 1
    3093      602      603 1
    3094     3917     3918 1
    3095     2444     2445 1
    3096     2981     2982 1
    3097     3305     3306 1
    3098     3407     3408 1
    3099     3731     3732 1
    3100     4314     4315 1
    3101     2849     2850 1
    3102     2543     2544 1
    3103      252      254 1
    3104      900      902 1
    3105     2830     2829 1
    3106     2664     2666 1
    3107     2599     2600 1
    3108     8901     8903 1
    3109    10770    10772 1
    3110     5148     5150 1
    3111     3025     3026 1
    3112     4067     4068 1
    3113     2203     2204 1
    3114    11688    11690 1
    3115     5904     5906 1
    3116     6984     6986 1
    3117      695      696 1
    3118     9342     9343 1
    3119     1311     1313 1
    3120     9945     9946 1
    3121     1203     1205 1
    3122     9756     9757 1
    3123     3675     3676 1
    3124    10107    10108 1
    3125    10161    10162 1
    3126    11862    11863 1
    3127    10512    10513 1
    3128     2810     2811 1
    3129     9918     9919 1
    3130    11712    11714 1
    3131     9795     9797 1
    3132     9633     9635 1
    3133     1471     1472 1
    3134     2778     2780 1
    3135     2346     2348 1
    3136     1300     1301 1
    3137     8295     8297 1
    3138     8376     8378 1
    3139     8214     8216 1
    3140     7830     7832 1
    3141     7074     7076 1
    3142     8829     8831 1
    3143     1574     1575 1
    3144     4614     4615 1
    3145     2091     2092 1
    3146     9762     9764 1
    3147    10167    10169 1
    3148     3801     3802 1
    3149     9924     9926 1
    3150     4374     4375 1
    3151     2508     2509 1
    3152     1095     1096 1
    3153    11517    11519 1
    3154     1791     1792 1
    3155    10005    10007 1
    3156      691      692 1
    3157     1459     1462 1
    3158    11349    11351 1
    3159    11160    11162 1
    3160    11241    11243 1
    3161     9594     9596 1
    3162     6825     6826 1
    3163     1200     1201 1
    3164     1000     1001 1
    3165     7575     7577 1
    3166     9411     9413 1
    3167     1073     1074 1
    3168     9492     9494 1
    3169      198      200 1
    3170     7494     7496 1
    3171     5658     5660 1
    3172     4902     4904 1
    3173     5739     5741 1
    3174     7656     7658 1
    3175     9369     9370 1
    3176     6534     6535 1
    3177     6453     6454 1
    3178     8343     8344 1
    3179     3229     3228 1
    3180     2896     2895 1
    3181     7755     7757 1
    3182     1088     1089 1
    3183     8709     8710 1
    3184     9393     9394 1
    3185     7119     7121 1
    3186     2279     2280 1
    3187      400      401 1
    3188      511      512 1
    3189     7128     7129 1
    3190     4824     4826 1
    3191     9750     9751 1
    3192    10101    10102 1
    3193     9912     9913 1
    3194    11856    11857 1
    3195    11505    11506 1
    3196     9939     9940 1
    3197     1779     1780 1
    3198     6222     6223 1
    3199     6303     6304 1
    3200     8058     8059 1
    3201     8139     8140 1
    3202     5304     5305 1
    3203      940      941 1
    3204     7977     7978 1
    3205     6141     6142 1
    3206     1431     1432 1
    3207     2124     2125 1
    3208      131      132 1
    3209      351      352 1
    3210     1542     1543 1
    3211     1326     1327 1
    3212      882      883 1
    3213      993      994 1
    3214     4158     4159 1
    3215     1013     1014 1
    3216     1337     1338 1
    3217     7974     7976 1
    3218     6300     6302 1
    3219     6219     6221 1
    3220     6138     6140 1
    3221     8136     8138 1
    3222     5301     5303 1
    3223     2908     2909 1
    3224     3445     3446 1
    3225     3001     3003 1
    3226     8055     8057 1
    3227     1682     1685 1
    3228     3556     3557 1
    3229     3222     3223 1
    3230    11946    11947 1
    3231      659      660 1
    3232     8664     8665 1
    3233     2423     2422 1
    3234     8595     8596 1
    3235     6882     6884 1
    3236     6963     6965 1
    3237     8718     8720 1
    3238     5580     5581 1
    3239     5418     5419 1
    3240     8880     8882 1
    3241     8577     8578 1
    3242     6336     6337 1
    3243     6498     6499 1
    3244     6558     6560 1
    3245     7335     7336 1
    3246     8415     8416 1
    3247      322      323 1
    3248     1321     1322 1
    3249     1213     1214 1
    3250    11853    11855 1
    3251     9612     9614 1
    3252    10098    10100 1
    3253     2460     2461 1
    3254      488      490 1
    3255     4620     4622 1
    3256     2109     2110 1
    3257     6129     6130 1
    3258     5292     5293 1
    3259     8694     8695 1
    3260     8841     8843 1
    3261       74       75 1
    3262     3095     3098 1
    3263     4054     4053 1
    3264     9192     9194 1
    3265     9003     9005 1
    3266     1485     1486 1
    3267     7086     7088 1
    3268     9030     9032 1
    3269     7437     7439 1
    3270     1777     1778 1
    3271     4200     4201 1
    3272      480      481 1
    3273     1230     1231 1
    3274     3230     3231 1
    3275      369      370 1
    3276     1590     1591 1
    3277    11724    11725 1
    3278    11805    11806 1
    3279     2504     2505 1
    3280     3485     3486 1
    3281    11211    11212 1
    3282      776      777 1
    3283    10200    10201 1
    3284    10362    10363 1
    3285     2787     2788 1
    3286     3549     3550 1
    3287     2253     2254 1
    3288     3899     3900 1
    3289    10716    10717 1
    3290    11229    11230 1
    3291     1895     1896 1
    3292     2607     2606 1
    3293     4230     4231 1
    3294     2280     2281 1
    3295     3897     3898 1
    3296     2199     2200 1
    3297     3786     3787 1
    3298     3491     3492 1
    3299     2741     2742 1
    3300     4256     4257 1
    3301      714      713 1
    3302     1308     1307 1
    3303     3415     3414 1
    3304      725      726 1
    3305     1805     1806 1
    3306       76       77 1
    3307     3982     3981 1
    3308    10131    10133 1
    3309    10725    10727 1
    3310    10887    10889 1
    3311    10293    10295 1
    3312     3057     3058 1
    3313     4302     4303 1
    3314     2307     2308 1
    3315     2136     2137 1
    3316      803      804 1
    3317      797      798 1
    3318     1583     1584 1
    3319     1850     1851 1
    3320     4169     4158 1
    3321     2291     2292 1
    3322     2245     2246 1
    3323    11010    11012 1
    3324    11091    11093 1
    3325    11442    11444 1
    3326    11199    11201 1
    3327    10929    10931 1
    3328     1091     1092 1
    3329     2826     2828 1
    3330     4572     4573 1
    3331     2191     2193 1
    3332      327      328 1
    3333      310      311 1
    3334     1993     1982 1
    3335      670      671 1
    3336     6168     6170 1
    3337     4275     4276 1
    3338     3955     3956 1
    3339     3270     3271 1
    3340     2946     2947 1
    3341     2698     2699 1
    3342      684      686 1
    3343     2827     2828 1
    3344     2933     2936 1
    3345     8640     8641 1
    3346     8559     8560 1
    3347     2184     2187 1
    3348     1951     1952 1
    3349       89       90 1
    3350    11379    11380 1
    3351     3702     3701 1
    3352    11136    11137 1
    3353    11460    11461 1
    3354     4290     4291 1
    3355     9543     9544 1
    3356     4295     4296 1
    3357     4641     4642 1
    3358     4839     4841 1
    3359     1792     1793 1
    3360     3126     3127 1
    3361     2370     2371 1
    3362     1787     1788 1
    3363     1804     1805 1
    3364     2312     2313 1
    3365     4092     4093 1
    3366     4590     4592 1
    3367     2232     2234 1
    3368      923      924 1
    3369     2086     2087 1
    3370     9354     9355 1
    3371     9165     9166 1
    3372     7599     7600 1
    3373     7248     7249 1
    3374      329      330 1
    3375     1101     1102 1
    3376      564      565 1
    3377     1212     1213 1
    3378     2459     2460 1
    3379     4908     4910 1
    3380     7500     7502 1
    3381     9498     9500 1
    3382     9417     9419 1
    3383     5664     5666 1
    3384     7581     7583 1
    3385     5745     5747 1
    3386     7662     7664 1
    3387      983      984 1
    3388     1775     1776 1
    3389     2301     2299 1
    3390     5943     5945 1
    3391     9399     9401 1
    3392     7482     7484 1
    3393     8184     8186 1
    3394     5349     5351 1
    3395     8022     8024 1
    3396     7644     7646 1
    3397     5727     5729 1
    3398     5049     5051 1
    3399     6885     6887 1
    3400     7209     7211 1
    3401     7425     7427 1
    3402     6291     6293 1
    3403     6210     6212 1
    3404     5805     5807 1
    3405     5427     5429 1
    3406     8721     8723 1
    3407     1513     1516 1
    3408     3706     3707 1
    3409    10398    10400 1
    3410    10479    10481 1
    3411      126      127 1
    3412    10155    10157 1
    3413    10236    10238 1
    3414    10560    10562 1
    3415     9993     9995 1
    3416     4425     4427 1
    3417      632      633 1
    3418     1175     1176 1
    3419     1502     1503 1
    3420      419      420 1
    3421     1715     1716 1
    3422     8481     8482 1
    3423     6564     6565 1
    3424     6726     6727 1
    3425     2224     2225 1
    3426     3696     3699 1
    3427     5994     5995 1
    3428     4995     4996 1
    3429     9378     9379 1
    3430     3101     3102 1
    3431     7299     7300 1
    3432     7461     7462 1
    3433     5814     5815 1
    3434     5058     5059 1
    3435     7731     7732 1
    3436     5622     5623 1
    3437     4947     4948 1
    3438     7620     7621 1
    3439     7701     7702 1
    3440     5703     5704 1
    3441     5865     5866 1
    3442     2871     2872 1
    3443    10482    10483 1
    3444    11022    11023 1
    3445     8925     8927 1
    3446      710      711 1
    3447      278      279 1
    3448     6138     6139 1
    3449     4605     4607 1
    3450     4365     4367 1
    3451     4307     4308 1
    3452     2423     2424 1
    3453      576      578 1
    3454     3973     3974 1
    3455     1163     1164 1
    3456      147      148 1
    3457      484      485 1
    3458     1899     1900 1
    3459      373      374 1
    3460     1558     1559 1
    3461     1447     1448 1
    3462    11643    11645 1
    3463    11481    11483 1
    3464    12021    12023 1
    3465    11400    11402 1
    3466     9726     9728 1
    3467    10728    10729 1
    3468      609      610 1
    3469     9564     9566 1
    3470    10647    10648 1
    3471    10890    10891 1
    3472     6030     6031 1
    3473     3684     3685 1
    3474     9849     9851 1
    3475    11928    11930 1
    3476     8835     8837 1
    3477     7404     7406 1
    3478     6243     6245 1
    3479     8160     8162 1
    3480     8997     8999 1
    3481     8322     8324 1
    3482     9321     9323 1
    3483     5487     5489 1
    3484     7080     7082 1
    3485     7998     8000 1
    3486     9654     9656 1
    3487    11571    11573 1
    3488    11490    11492 1
    3489    11409    11411 1
    3490    11652    11654 1
    3491     9573     9575 1
    3492     9735     9737 1
    3493     3604     3605 1
    3494     4300     4301 1
    3495    11376    11378 1
    3496     2746     2747 1
    3497     2410     2411 1
    3498      236      235 1
    3499     3484     3485 1
    3500     3700     3701 1
    3501     7062     7064 1
    3502     8898     8900 1
    3503     6981     6983 1
    3504     9060     9062 1
    3505     8817     8819 1
    3506     8655     8657 1
    3507     6819     6821 1
    3508     1320     1319 1
    3509     1819     1820 1
    3510     1290     1291 1
    3511       17       18 1
    3512      528      529 1
    3513     3208     3209 1
    3514     1377     1378 1
    3515      615      616 1
    3516     3527     3530 1
    3517     6084     6086 1
    3518     4046     4047 1
    3519     2465     2466 1
    3520     2255     2256 1
    3521     2789     2790 1
    3522     2342     2343 1
    3523     1662     1663 1
    3524     2693     2694 1
    3525     6909     6910 1
    3526     5829     5830 1
    3527     7746     7747 1
    3528     5073     5074 1
    3529     3593     3594 1
    3530     7899     7900 1
    3531     8439     8440 1
    3532     5982     5983 1
    3533     5226     5227 1
    3534     6522     6523 1
    3535     5388     5389 1
    3536     2114     2115 1
    3537     3885     3886 1
    3538     3791     3792 1
    3539     3716     3717 1
    3540     3395     3396 1
    3541     2420     2421 1
    3542     4662     4664 1
    3543     4755     4757 1
    3544     9804     9805 1
    3545     9966     9967 1
    3546     9885     9886 1
    3547     4674     4676 1
    3548     4743     4745 1
    3549    11883    11884 1
    3550     1045     1046 1
    3551     4455     4457 1
    3552     8406     8407 1
    3553     8298     8300 1
    3554     9216     9218 1
    3555     7137     7139 1
    3556     5544     5546 1
    3557     4048     4049 1
    3558     3010     3011 1
    3559     3769     3770 1
    3560     3153     3152 1
    3561     5907     5908 1
    3562     5151     5152 1
    3563     6609     6610 1
    3564     8364     8365 1
    3565     6069     6070 1
    3566     6447     6448 1
    3567     8526     8527 1
    3568     9759     9761 1
    3569    11433    11435 1
    3570     9921     9923 1
    3571    10272    10274 1
    3572    11514    11516 1
    3573     8478     8480 1
    3574     6723     6725 1
    3575      541      544 1
    3576     6579     6581 1
    3577     1992     1991 1
    3578     3910     3909 1
    3579     1088     1090 1
    3580     2740     2741 1
    3581     4803     4805 1
    3582     3376     3377 1
    3583     1864     1865 1
    3584      308      309 1
    3585     4656     4658 1
    3586     1062     1063 1
    3587     9015     9017 1
    3588     4737     4739 1
    3589     7158     7159 1
    3590     8913     8914 1
    3591     9426     9427 1
    3592     7428     7429 1
    3593     8832     8833 1
    3594     9183     9184 1
    3595     6996     6997 1
    3596     8994     8995 1
    3597     7077     7078 1
    3598     5430     5431 1
    3599     3927     3928 1
    3600     4887     4888 1
    3601     5643     5644 1
    3602     6222     6224 1
    3603     8139     8141 1
    3604     6303     6305 1
    3605     8058     8060 1
    3606     5304     5306 1
    3607     6994     6993 1
    3608     5239     5238 1
    3609     8911     8910 1
    3610     7977     7979 1
    3611     6141     6143 1
    3612     3987     3976 1
    3613     2763     2764 1
    3614     3735     3736 1
    3615     1239     1240 1
    3616     1331     1330 1
    3617     4071     4060 1
    3618     1261     1262 1
    3619     4707     4709 1
    3620     3776     3777 1
    3621     4389     4391 1
    3622     3567     3568 1
    3623     5580     5582 1
    3624     5418     5420 1
    3625     8577     8579 1
    3626     6498     6500 1
    3627     6336     6338 1
    3628     7335     7337 1
    3629     8568     8570 1
    3630     8415     8417 1
    3631     2964     2965 1
    3632     3971     3972 1
    3633     3072     3073 1
    3634     2421     2422 1
    3635     1122     1123 1
    3636    11385    11386 1
    3637     3649     3651 1
    3638    11142    11143 1
    3639    11466    11467 1
    3640     9549     9550 1
    3641     2063     2064 1
    3642    10059    10060 1
    3643    11706    11707 1
    3644     2013     2014 1
    3645    10221    10222 1
    3646     9789     9790 1
    3647    11976    11977 1
    3648     9627     9628 1
    3649     2030     2031 1
    3650     1033     1034 1
    3651      987      988 1
    3652      543      544 1
    3653     1071     1070 1
    3654      379      382 1
    3655    11682    11684 1
    3656    10764    10766 1
    3657     2113     2112 1
    3658     3861     3862 1
    3659     8403     8405 1
    3660    11340    11342 1
    3661     7170     7172 1
    3662     5577     5579 1
    3663     3906     3907 1
    3664     7008     7010 1
    3665     7332     7334 1
    3666     8844     8846 1
    3667     5415     5417 1
    3668     9006     9008 1
    3669     9330     9332 1
    3670     7089     7091 1
    3671       95       96 1
    3672     2344     2345 1
    3673     3100     3101 1
    3674     7083     7085 1
    3675       57       58 1
    3676     6801     6802 1
    3677      628      607 1
    3678     8502     8503 1
    3679     6747     6748 1
    3680     6585     6586 1
    3681     9948     9949 1
    3682    10110    10111 1
    3683    11082    11083 1
    3684    11001    11002 1
    3685    11325    11326 1
    3686    11541    11542 1
    3687     2054     2055 1
    3688    11784    11785 1
    3689    10029    10030 1
    3690     4377     4378 1
    3691     3561     3562 1
    3692     1165     1166 1
    3693     2151     2152 1
    3694     4875     4876 1
    3695     4266     4255 1
    3696     1934     1935 1
    3697      977      978 1
    3698     2820     2821 1
    3699     6555     6557 1
    3700     6960     6962 1
    3701     6879     6881 1
    3702     8877     8879 1
    3703     6393     6395 1
    3704     6474     6476 1
    3705     8715     8717 1
    3706     8634     8636 1
    3707      922      923 1
    3708     9558     9559 1
    3709    10854    10855 1
    3710    11394    11395 1
    3711    11151    11152 1
    3712    10773    10774 1
    3713    11475    11476 1
    3714     3487     3488 1
    3715      433      436 1
    3716     1222     1223 1
    3717    10128    10130 1
    3718    11208    11210 1
    3719    10290    10292 1
    3720    11691    11693 1
    3721    11772    11774 1
    3722     3841     3842 1
    3723     2755     2756 1
    3724     2866     2867 1
    3725      522      523 1
    3726      230      231 1
    3727     3480     3483 1
    3728    11562    11564 1
    3729     8244     8245 1
    3730     6003     6004 1
    3731     6678     6679 1
    3732     3317     3318 1
    3733     3271     3272 1
    3734     9354     9356 1
    3735     7599     7601 1
    3736     9165     9167 1
    3737     5514     5515 1
    3738     4920     4921 1
    3739     7512     7513 1
    3740     5919     5920 1
    3741     6270     6271 1
    3742      937      936 1
    3743      514      513 1
    3744     9510     9511 1
    3745     5757     5758 1
    3746     8268     8269 1
    3747      403      402 1
    3748     3341     3342 1
    3749      801      802 1
    3750     2579     2580 1
    3751     4219     4220 1
    3752     1563     1564 1
    3753     3332     3333 1
    3754     1014     1015 1
    3755     3113     3114 1
    3756     3653     3654 1
    3757     9699     9700 1
    3758     9780     9781 1
    3759    11697    11698 1
    3760     9807     9808 1
    3761     9861     9862 1
    3762      127      128 1
    3763     1427     1428 1
    3764     2041     2042 1
    3765     9888     9889 1
    3766     9618     9619 1
    3767    11361    11362 1
    3768    10524    10525 1
    3769     1385     1386 1
    3770     9606     9607 1
    3771      118      116 1
    3772     3308     3309 1
    3773     3734     3735 1
    3774      360      362 1
    3775     1656     1658 1
    3776     3292     3294 1
    3777     2340     2342 1
    3778     2083     2084 1
    3779     3425     3424 1
    3780     3526     3525 1
    3781      187      188 1
    3782     3727     3726 1
    3783      836      837 1
    3784     1237     1238 1
    3785     1487     1488 1
    3786      215      214 1
    3787    11049    11051 1
    3788     3678     3679 1
    3789     2014     2015 1
    3790     2677     2678 1
    3791     8514     8515 1
    3792     4166     4167 1
    3793     3669     3670 1
    3794     3680     3681 1
    3795     3433     3434 1
    3796     9903     9905 1
    3797     9822     9824 1
    3798     3479     3480 1
    3799    11901    11903 1
    3800     9984     9986 1
    3801    10386    10387 1
    3802    10548    10549 1
    3803       94       93 1
    3804      575      576 1
    3805     5865     5867 1
    3806     5622     5624 1
    3807     4947     4949 1
    3808     4028     4017 1
    3809     7620     7622 1
    3810     5703     5705 1
    3811     7701     7703 1
    3812      600      601 1
    3813     7560     7562 1
    3814     9477     9479 1
    3815     7236     7238 1
    3816     1608     1609 1
    3817      574      553 1
    3818     2724     2725 1
    3819     1830     1831 1
    3820     3277     3278 1
    3821     4857     4858 1
    3822     4695     4696 1
    3823     3931     3932 1
    3824    11547    11549 1
    3825    11304    11306 1
    3826    11628    11630 1
    3827     7143     7145 1
    3828     8304     8306 1
    3829      740      741 1
    3830     1724     1725 1
    3831      539      540 1
    3832     9222     9224 1
    3833     1496     1497 1
    3834     2514     2515 1
    3835     4866     4867 1
    3836     2266     2267 1
    3837     1295     1296 1
    3838     6156     6157 1
    3839     4719     4721 1
    3840     1693     1692 1
    3841      608      609 1
    3842     2534     2535 1
    3843      980      981 1
    3844      872      873 1
    3845     2288     2289 1
    3846     6846     6847 1
    3847     6927     6928 1
    3848     6126     6127 1
    3849     1538     1539 1
    3850     6765     6766 1
    3851     1890     1891 1
    3852     1954     1955 1
    3853     2091     2080 1
    3854     1486     1487 1
    3855     3344     3345 1
    3856     3608     3609 1
    3857     3815     3816 1
    3858     3928     3929 1
    3859     4782     4784 1
    3860    11424    11425 1
    3861    11181    11182 1
    3862     8166     8167 1
    3863     8328     8329 1
    3864     7410     7411 1
    3865     5493     5494 1
    3866     9327     9328 1
    3867      786      787 1
    3868      134      135 1
    3869      558      559 1
    3870     2130     2131 1
    3871     2032     2033 1
    3872     4019     4020 1
    3873      154      155 1
    3874     8514     8516 1
    3875     8352     8354 1
    3876     5895     5897 1
    3877     5139     5141 1
    3878     5490     5492 1
    3879     6435     6437 1
    3880     3118     3119 1
    3881     3229     3230 1
    3882     6597     6599 1
    3883     5274     5276 1
    3884     2467     2468 1
    3885     3880     3881 1
    3886     1769     1770 1
    3887     8769     8770 1
    3888     8607     8608 1
    3889     6690     6691 1
    3890     8688     8689 1
    3891     7212     7214 1
    3892     8967     8969 1
    3893    11271    11273 1
    3894    11109    11111 1
    3895    10569    10571 1
    3896     7047     7049 1
    3897     5967     5969 1
    3898     7587     7589 1
    3899     5373     5375 1
    3900      217      220 1
    3901      898      899 1
    3902     6909     6911 1
    3903     5829     5831 1
    3904     3823     3824 1
    3905     2854     2855 1
    3906     7746     7748 1
    3907     5073     5075 1
    3908     4371     4372 1
    3909     1817     1818 1
    3910     1726     1727 1
    3911     1177     1178 1
    3912      964      965 1
    3913     7248     7250 1
    3914    10071    10073 1
    3915    11394    11396 1
    3916     2031     2032 1
    3917    11988    11990 1
    3918     4698     4700 1
    3919     2998     2999 1
    3920     2352     2353 1
    3921     1979     1980 1
    3922     1172     1173 1
    3923     4764     4766 1
    3924     9339     9341 1
    3925     2508     2511 1
    3926     4581     4582 1
    3927     3224     3225 1
    3928    10505    10503 1
    3929     3761     3762 1
    3930     3422     3423 1
    3931     2562     2563 1
    3932    10374    10375 1
    3933    10536    10537 1
    3934    10860    10861 1
    3935    10320    10321 1
    3936     2110     2111 1
    3937     2038     2039 1
    3938     2885     2886 1
    3939     6705     6706 1
    3940     4842     4844 1
    3941     2747     2748 1
    3942     1470     1469 1
    3943     1610     1611 1
    3944     1052     1053 1
    3945     1703     1704 1
    3946     1585     1586 1
    3947      941      942 1
    3948      719      720 1
    3949     4345     4346 1
    3950     5402     5400 1
    3951     5078     5076 1
    3952     1024     1025 1
    3953    11535    11537 1
    3954    11076    11078 1
    3955     9942     9944 1
    3956    10995    10997 1
    3957    11319    11321 1
    3958     2955     2956 1
    3959    10104    10106 1
    3960    11778    11780 1
    3961     2640     2641 1
    3962     2418     2419 1
    3963     7326     7327 1
    3964     5976     5977 1
    3965    11982    11984 1
    3966    10065    10067 1
    3967     9687     9689 1
    3968     9525     9527 1
    3969    11766    11768 1
    3970    10227    10229 1
    3971    11604    11606 1
    3972     9843     9844 1
    3973    11922    11923 1
    3974     3750     3753 1
    3975     3858     3861 1
    3976     8079     8081 1
    3977      822      823 1
    3978     4122     4123 1
    3979       90       92 1
    3980     2658     2657 1
    3981     4210     4209 1
    3982     2802     2803 1
    3983     2658     2659 1
    3984     3516     3517 1
    3985     2642     2643 1
    3986     5991     5992 1
    3987     5235     5236 1
    3988     8826     8827 1
    3989     7908     7909 1
    3990    10812    10813 1
    3991    10704    10705 1
    3992     7071     7072 1
    3993     5397     5398 1
    3994    10974    10975 1
    3995     1640     1641 1
    3996     4473     4474 1
    3997     4785     4787 1
    3998     1875     1876 1
    3999     1790     1791 1
    4000     3350     3351 1
    4001     2927     2928 1
    4002     2175     2164 1
    4003     3200     3201 1
    4004     1730     1731 1
    4005     2488     2489 1
    4006     3244     3245 1
    4007     5844     5845 1
    4008     7923     7924 1
    4009     5088     5089 1
    4010     5169     5170 1
    4011     7842     7843 1
    4012     4872     4873 1
    4013     7680     7681 1
    4014       49       50 1
    4015     4141     4130 1
    4016     6717     6719 1
    4017     8472     8474 1
    4018     5880     5882 1
    4019     8958     8960 1
    4020     8796     8798 1
    4021     4962     4964 1
    4022     7635     7637 1
    4023     5718     5720 1
    4024     3366     3368 1
    4025     6237     6239 1
    4026     6804     6806 1
    4027     7992     7994 1
    4028     8502     8504 1
    4029     6747     6749 1
    4030     6585     6587 1
    4031     6930     6931 1
    4032     9225     9226 1
    4033     6768     6769 1
    4034     7146     7147 1
    4035     5553     5554 1
    4036    11667    11669 1
    4037    10425    10427 1
    4038     3344     3323 1
    4039     2588     2567 1
    4040    10587    10589 1
    4041     2620     2621 1
    4042     2539     2540 1
    4043     3523     3524 1
    4044     2761     2762 1
    4045     2650     2651 1
    4046      952      953 1
    4047      965      966 1
    4048     3979     3980 1
    4049      554      555 1
    4050      306      307 1
    4051     9075     9076 1
    4052     5592     5593 1
    4053     9237     9238 1
    4054     7590     7591 1
    4055     4548     4550 1
    4056     9156     9157 1
    4057     7239     7240 1
    4058     7347     7348 1
    4059    11511    11512 1
    4060     3586     3587 1
    4061     4428     4430 1
    4062     8991     8992 1
    4063     1605     1604 1
    4064     9315     9316 1
    4065     5481     5482 1
    4066     3379     3380 1
    4067     7110     7111 1
    4068     9108     9109 1
    4069     7272     7273 1
    4070     7029     7030 1
    4071     6768     6770 1
    4072     5877     5878 1
    4073     7485     7486 1
    4074     9402     9403 1
    4075     7480     7479 1
    4076     6508     6507 1
    4077     9397     9396 1
    4078     7647     7648 1
    4079     5730     5731 1
    4080     6049     6048 1
    4081     8101     8100 1
    4082     1941     1942 1
    4083     8425     8424 1
    4084     2652     2653 1
    4085     2877     2878 1
    4086    11670    11671 1
    4087     2133     2134 1
    4088    10752    10753 1
    4089     4431     4432 1
    4090     4551     4552 1
    4091     2044     2045 1
    4092       58       55 1
    4093     4869     4871 1
    4094     1440     1442 1
    4095     1008     1010 1
    4096     1936     1925 1
    4097     9690     9692 1
    4098    11769    11771 1
    4099     4175     4176 1
    4100    10689    10691 1
    4101    10419    10421 1
    4102      509      510 1
    4103    10257    10259 1
    4104      620      621 1
    4105     9528     9530 1
    4106    11256    11258 1
    4107      164      166 1
    4108     1046     1047 1
    4109    11538    11539 1
    4110    11025    11026 1
    4111    10458    10459 1
    4112     1229     1230 1
    4113     2067     2068 1
    4114      393      394 1
    4115     1689     1690 1
    4116     4327     4328 1
    4117     4386     4387 1
    4118    10620    10621 1
    4119    11223    11224 1
    4120    12000    12001 1
    4121     4920     4922 1
    4122     9510     9512 1
    4123     1787     1786 1
    4124     7512     7514 1
    4125     5919     5921 1
    4126     6270     6272 1
    4127     5514     5516 1
    4128     5757     5759 1
    4129     6351     6353 1
    4130     8268     8270 1
    4131     1032     1033 1
    4132    11946    11948 1
    4133      601      602 1
    4134     4638     4639 1
    4135      555      556 1
    4136    12003    12005 1
    4137    11841    11843 1
    4138    10086    10088 1
    4139    10275    10277 1
    4140     4410     4412 1
    4141    11646    11648 1
    4142     9729     9731 1
    4143    10080    10082 1
    4144     4650     4652 1
    4145    11484    11486 1
    4146    11835    11837 1
    4147     9567     9569 1
    4148     9648     9650 1
    4149    11997    11999 1
    4150      922      921 1
    4151     2373     2372 1
    4152     9765     9767 1
    4153     9927     9929 1
    4154      778      779 1
    4155      454      455 1
    4156     1003     1004 1
    4157      991      992 1
    4158    11520    11522 1
    4159     2634     2633 1
    4160    10395    10397 1
    4161      206      207 1
    4162      318      319 1
    4163     1506     1507 1
    4164       32       33 1
    4165      405      406 1
    4166      618      619 1
    4167     6346     6345 1
    4168     4770     4771 1
    4169     1060     1039 1
    4170     3506     3507 1
    4171     6342     6343 1
    4172     8583     8584 1
    4173     6261     6262 1
    4174     8178     8179 1
    4175     8097     8098 1
    4176     3269     3270 1
    4177     2945     2946 1
    4178     5262     5263 1
    4179     8421     8422 1
    4180     6099     6100 1
    4181     5127     5128 1
    4182     7800     7801 1
    4183     3129     3130 1
    4184     7281     7283 1
    4185     1696     1697 1
    4186     1477     1478 1
    4187     2489     2490 1
    4188     3788     3789 1
    4189     3188     3189 1
    4190    10695    10696 1
    4191    11019    11020 1
    4192     9858     9859 1
    4193     4614     4616 1
    4194     1574     1576 1
    4195     4374     4376 1
    4196     9696     9697 1
    4197     1746     1747 1
    4198     9324     9326 1
    4199     6546     6547 1
    4200     6384     6385 1
    4201     6465     6466 1
    4202     8625     8626 1
    4203     4527     4529 1
    4204     6195     6196 1
    4205     4821     4823 1
    4206      119      116 1
    4207      254      255 1
    4208     6381     6383 1
    4209     6543     6545 1
    4210     8622     8624 1
    4211     6462     6464 1
    4212      382      383 1
    4213    10692    10693 1
    4214    11232    11233 1
    4215     7149     7150 1
    4216     5556     5557 1
    4217     9228     9229 1
    4218     8310     8311 1
    4219     3638     3636 1
    4220      813      814 1
    4221     2590     2592 1
    4222     2613     2614 1
    4223     1386     1388 1
    4224      980      982 1
    4225      872      874 1
    4226      248      247 1
    4227     4752     4753 1
    4228      532      533 1
    4229     1174     1175 1
    4230      562      563 1
    4231     1686     1687 1
    4232     3616     3617 1
    4233     2568     2569 1
    4234     1526     1527 1
    4235     1278     1279 1
    4236      947      946 1
    4237      717      719 1
    4238     2187     2188 1
    4239     8166     8168 1
    4240     8328     8330 1
    4241     7410     7412 1
    4242     4124     4125 1
    4243     5493     5495 1
    4244     9327     9329 1
    4245     3513     3514 1
    4246     4055     4056 1
    4247     2258     2259 1
    4248     3014     3015 1
    4249     2886     2887 1
    4250     2994     2995 1
    4251     1205     1206 1
    4252     1004     1005 1
    4253     1211     1212 1
    4254      893      894 1
    4255     3146     3147 1
    4256     4349     4350 1
    4257     4437     4439 1
    4258     2912     2913 1
    4259     1736     1737 1
    4260     1859     1858 1
    4261     3390     3391 1
    4262     3819     3820 1
    4263       67       68 1
    4264    10710    10711 1
    4265    11034    11035 1
    4266    11895    11896 1
    4267     9816     9817 1
    4268     9897     9898 1
    4269    10329    10330 1
    4270     9978     9979 1
    4271     5109     5110 1
    4272     7782     7783 1
    4273      493      494 1
    4274      447      448 1
    4275     3693     3694 1
    4276     3804     3805 1
    4277    11709    11711 1
    4278     9711     9713 1
    4279     9792     9794 1
    4280     9630     9632 1
    4281     9873     9875 1
    4282      676      677 1
    4283     5307     5309 1
    4284     8142     8144 1
    4285     6225     6227 1
    4286     7980     7982 1
    4287     6399     6400 1
    4288     3316     3317 1
    4289     4177     4178 1
    4290     7966     7965 1
    4291     2436     2435 1
    4292     1011     1010 1
    4293      810      809 1
    4294     6855     6856 1
    4295     9150     9151 1
    4296     7395     7396 1
    4297     1196     1197 1
    4298     6684     6685 1
    4299     8763     8764 1
    4300     8601     8602 1
    4301     8682     8683 1
    4302     1795     1796 1
    4303     2574     2575 1
    4304     3111     3112 1
    4305      406      407 1
    4306     4767     4768 1
    4307     4686     4687 1
    4308     3420     3422 1
    4309     3784     3785 1
    4310     3247     3248 1
    4311     1625     1626 1
    4312     1130     1131 1
    4313     1998     1999 1
    4314     2058     2059 1
    4315      342      343 1
    4316     4242     4243 1
    4317     2216     2217 1
    4318     1434     1435 1
    4319      332      335 1
    4320     1323     1324 1
    4321     1448     1449 1
    4322     6366     6368 1
    4323     5826     5828 1
    4324     5070     5072 1
    4325     7743     7745 1
    4326     8283     8285 1
    4327     6204     6206 1
    4328     2229     2230 1
    4329     2685     2684 1
    4330     2957     2956 1
    4331     7908     7910 1
    4332     8664     8666 1
    4333     5991     5993 1
    4334     7071     7073 1
    4335     5235     5237 1
    4336     8826     8828 1
    4337     5397     5399 1
    4338     4183     4184 1
    4339    10992    10994 1
    4340    11073    11075 1
    4341     1889     1890 1
    4342     1648     1649 1
    4343     2122     2123 1
    4344    10911    10913 1
    4345     4641     4643 1
    4346     9585     9587 1
    4347     4860     4862 1
    4348      338      339 1
    4349     4258     4259 1
    4350     5844     5846 1
    4351     5088     5090 1
    4352      831      832 1
    4353     7923     7925 1
    4354     5169     5171 1
    4355     7842     7844 1
    4356     7680     7682 1
    4357     3843     3844 1
    4358     2576     2577 1
    4359     1978     1967 1
    4360     3116     3117 1
    4361     3878     3879 1
    4362      795      796 1
    4363    10343    10341 1
    4364     6084     6085 1
    4365     5037     5038 1
    4366     2060     2061 1
    4367     1877     1878 1
    4368     2169     2170 1
    4369     2097     2098 1
    4370      468      470 1
    4371     4126     4115 1
    4372     6930     6932 1
    4373     9225     9227 1
    4374    11445    11447 1
    4375    10743    10745 1
    4376     7314     7316 1
    4377    10905    10907 1
    4378      907      908 1
    4379     1018     1019 1
    4380     7146     7148 1
    4381     5553     5555 1
    4382     4336     4325 1
    4383     1409     1410 1
    4384      447      449 1
    4385     9891     9892 1
    4386     9810     9811 1
    4387    10323    10324 1
    4388     9972     9973 1
    4389    11889    11890 1
    4390    10173    10175 1
    4391    10011    10013 1
    4392     1331     1332 1
    4393     7485     7487 1
    4394     1439     1440 1
    4395     9402     9404 1
    4396     1580     1581 1
    4397     7647     7649 1
    4398     7245     7247 1
    4399     5730     5732 1
    4400     5184     5186 1
    4401     7857     7859 1
    4402      167      168 1
    4403     1419     1420 1
    4404      817      818 1
    4405     4542     4543 1
    4406     4422     4423 1
    4407     8397     8399 1
    4408     2400     2401 1
    4409      703      706 1
    4410    10053    10055 1
    4411     9783     9785 1
    4412     2419     2420 1
    4413    11970    11972 1
    4414    10215    10217 1
    4415    11700    11702 1
    4416     9621     9623 1
    4417     9066     9067 1
    4418     4056     4045 1
    4419      958      959 1
    4420    11196    11198 1
    4421    10656    10658 1
    4422     1721     1722 1
    4423     1950     1939 1
    4424     2935     2936 1
    4425     1041     1043 1
    4426      825      827 1
    4427     1476     1477 1
    4428     3588     3590 1
    4429     1783     1772 1
    4430     1780     1781 1
    4431     8115     8116 1
    4432      779      780 1
    4433      455      456 1
    4434     1529     1530 1
    4435     1328     1329 1
    4436     5802     5803 1
    4437     1535     1536 1
    4438     3572     3573 1
    4439     2085     2086 1
    4440     2094     2095 1
    4441     4536     4537 1
    4442     3461     3462 1
    4443     3785     3786 1
    4444     2648     2649 1
    4445     1920     1919 1
    4446     2835     2836 1
    4447    10317    10318 1
    4448     5520     5521 1
    4449     5925     5926 1
    4450     3476     3475 1
    4451     7761     7762 1
    4452     7518     7519 1
    4453     5007     5008 1
    4454     5682     5683 1
    4455     5763     5764 1
    4456     4926     4927 1
    4457     9669     9671 1
    4458     4848     4850 1
    4459     3703     3704 1
    4460     8568     8569 1
    4461      690      691 1
    4462     3328     3329 1
    4463     3007     3008 1
    4464     3325     3327 1
    4465     3439     3440 1
    4466    11448    11449 1
    4467    10287    10288 1
    4468     7473     7474 1
    4469      221      220 1
    4470     7311     7312 1
    4471     7959     7960 1
    4472     5286     5287 1
    4473     8697     8699 1
    4474     8859     8861 1
    4475    10164    10166 1
    4476     6942     6944 1
    4477     6861     6863 1
    4478    11352    11354 1
    4479    10515    10517 1
    4480    11163    11165 1
    4481     9597     9599 1
    4482     9321     9322 1
    4483     5487     5488 1
    4484     7998     7999 1
    4485     6318     6320 1
    4486     2374     2376 1
    4487     6342     6344 1
    4488     8583     8585 1
    4489     8178     8180 1
    4490     8097     8099 1
    4491     5262     5264 1
    4492     6261     6263 1
    4493     3064     3065 1
    4494     8421     8423 1
    4495     8685     8686 1
    4496     6099     6101 1
    4497     1984     1985 1
    4498     1886     1887 1
    4499     3864     3865 1
    4500     4806     4808 1
    4501     2782     2783 1
    4502     6189     6190 1
    4503     2449     2450 1
    4504     5781     5782 1
    4505     6105     6106 1
    4506     5187     5188 1
    4507     5565     5566 1
    4508     5025     5026 1
    4509     7320     7321 1
    4510     2724     2727 1
    4511     7860     7861 1
    4512     3924     3925 1
    4513     5403     5404 1
    4514     4264     4265 1
    4515     8289     8291 1
    4516     3992     3993 1
    4517     4019     4018 1
    4518     6546     6548 1
    4519     6384     6386 1
    4520     8625     8627 1
    4521     6465     6467 1
    4522     4915     4914 1
    4523     5563     5562 1
    4524     4309     4310 1
    4525     4836     4837 1
    4526    10046    10044 1
    4527    11963    11961 1
    4528     7083     7084 1
    4529     9666     9668 1
    4530    10914    10916 1
    4531     1866     1855 1
    4532     9753     9754 1
    4533    11427    11428 1
    4534     3044     3045 1
    4535    11508    11509 1
    4536     9915     9916 1
    4537    10266    10267 1
    4538    11739    11740 1
    4539    11820    11821 1
    4540     3569     3570 1
    4541     1381     1382 1
    4542      514      515 1
    4543      832      833 1
    4544     1051     1052 1
    4545     3356     3357 1
    4546     1845     1846 1
    4547    10446    10447 1
    4548     9906     9907 1
    4549     9825     9826 1
    4550    11904    11905 1
    4551    10527    10528 1
    4552    10608    10609 1
    4553     9987     9988 1
    4554     1456     1455 1
    4555     3852     3854 1
    4556     2917     2918 1
    4557     1755     1744 1
    4558      734      735 1
    4559      935      936 1
    4560     1552     1553 1
    4561     2141     2142 1
    4562      398      399 1
    4563     2072     2073 1
    4564       46       47 1
    4565     3813     3814 1
    4566     3968     3969 1
    4567     2739     2740 1
    4568      584      585 1
    4569     2507     2508 1
    4570     3647     3648 1
    4571     1595     1596 1
    4572     2461     2462 1
    4573    10794    10796 1
    4574    10470    10472 1
    4575    11550    11552 1
    4576       53       54 1
    4577     1999     2000 1
    4578      546      547 1
    4579    10632    10634 1
    4580     4351     4352 1
    4581    10383    10384 1
    4582    10545    10546 1
    4583    11301    11302 1
    4584    11625    11626 1
    4585     2721     2722 1
    4586     4332     4331 1
    4587     2056     2057 1
    4588      238      239 1
    4589     3645     3646 1
    4590     1871     1870 1
    4591     3714     3713 1
    4592     3972     3961 1
    4593     1136     1138 1
    4594     2730     2731 1
    4595     2482     2483 1
    4596     1873     1874 1
    4597     6021     6022 1
    4598      396      397 1
    4599     3741     3742 1
    4600     2655     2656 1
    4601     3984     3985 1
    4602     3729     3730 1
    4603      579      580 1
    4604      769      770 1
    4605     3254     3255 1
    4606      625      626 1
    4607     1971     1972 1
    4608      397      398 1
    4609     3143     3144 1
    4610     2876     2877 1
    4611     2336     2337 1
    4612     4794     4795 1
    4613     2155     2156 1
    4614     1355     1356 1
    4615     6708     6709 1
    4616     6789     6790 1
    4617     6627     6628 1
    4618     8787     8788 1
    4619     8463     8464 1
    4620     8544     8545 1
    4621     8949     8950 1
    4622     7805     7803 1
    4623     7914     7916 1
    4624     5079     5081 1
    4625     5160     5162 1
    4626     5835     5837 1
    4627     7833     7835 1
    4628     7671     7673 1
    4629     2289     2290 1
    4630     9150     9152 1
    4631     6855     6857 1
    4632     7395     7397 1
    4633     1196     1198 1
    4634      120      121 1
    4635     2480     2459 1
    4636     3938     3939 1
    4637     4377     4379 1
    4638     3628     3629 1
    4639     3406     3407 1
    4640     3739     3740 1
    4641     9210     9211 1
    4642     8292     8293 1
    4643     5538     5539 1
    4644     7131     7132 1
    4645     9189     9190 1
    4646     2561     2562 1
    4647     8838     8839 1
    4648     1782     1771 1
    4649     3811     3812 1
    4650     9000     9001 1
    4651     5436     5437 1
    4652     7164     7165 1
    4653     7191     7192 1
    4654     7002     7003 1
    4655     2800     2801 1
    4656     4344     4345 1
    4657     4479     4480 1
    4658     5496     5498 1
    4659    11037    11038 1
    4660     4680     4682 1
    4661     4761     4763 1
    4662     3179     3180 1
    4663     2630     2631 1
    4664     1332     1334 1
    4665     1581     1583 1
    4666     2519     2520 1
    4667     2194     2195 1
    4668      614      615 1
    4669     1376     1377 1
    4670      904      905 1
    4671      302      303 1
    4672      701      702 1
    4673    11430    11431 1
    4674      331      332 1
    4675     4434     4435 1
    4676      148      149 1
    4677     2939     2940 1
    4678      160      161 1
    4679     1559     1560 1
    4680     4163     4164 1
    4681     2893     2894 1
    4682    11187    11188 1
    4683     3217     3218 1
    4684     9741     9743 1
    4685    11496    11498 1
    4686    11658    11660 1
    4687     9579     9581 1
    4688    11577    11579 1
    4689     9660     9662 1
    4690    11415    11417 1
    4691     3595     3597 1
    4692      527      526 1
    4693     3426     3428 1
    4694     1115     1116 1
    4695     1353     1354 1
    4696     6039     6041 1
    4697     2119     2120 1
    4698     3765     3764 1
    4699     3602     3601 1
    4700      688      689 1
    4701      811      814 1
    4702     4602     4604 1
    4703     4554     4556 1
    4704     9837     9839 1
    4705     3496     3497 1
    4706     4211     4200 1
    4707     4668     4669 1
    4708    10269    10271 1
    4709     4749     4750 1
    4710    11916    11918 1
    4711     1416     1417 1
    4712      961      962 1
    4713     3236     3215 1
    4714     3052     3053 1
    4715     3753     3754 1
    4716     8466     8468 1
    4717     6711     6713 1
    4718     5712     5714 1
    4719     4956     4958 1
    4720     7629     7631 1
    4721     8790     8792 1
    4722     8952     8954 1
    4723     3054     3055 1
    4724     4292     4293 1
    4725     4731     4732 1
    4726     3151     3152 1
    4727      121      122 1
    4728     7686     7688 1
    4729     2815     2816 1
    4730     4285     4286 1
    4731      372      373 1
    4732     1446     1447 1
    4733     8772     8773 1
    4734     6693     6694 1
    4735     7233     7234 1
    4736     8988     8989 1
    4737     8610     8611 1
    4738     9087     9088 1
    4739     9249     9250 1
    4740     9168     9169 1
    4741     7251     7252 1
    4742     2481     2482 1
    4743     1741     1742 1
    4744     2466     2467 1
    4745     2082     2083 1
    4746     1956     1955 1
    4747     4632     4633 1
    4748     1145     1146 1
    4749     1913     1914 1
    4750      383      384 1
    4751     4623     4625 1
    4752     1828     1829 1
    4753     1847     1846 1
    4754     2034     2023 1
    4755     7488     7490 1
    4756     5949     5951 1
    4757     9405     9407 1
    4758     5733     5735 1
    4759     5355     5357 1
    4760     8190     8192 1
    4761     3760     3761 1
    4762     7650     7652 1
    4763     8028     8030 1
    4764     3690     3692 1
    4765     5340     5341 1
    4766     3615     3616 1
    4767     8256     8257 1
    4768     6015     6016 1
    4769     6177     6178 1
    4770     7806     7808 1
    4771     7536     7538 1
    4772    10056    10058 1
    4773     5457     5459 1
    4774     4971     4973 1
    4775    11973    11975 1
    4776     9453     9455 1
    4777     9291     9293 1
    4778    10218    10220 1
    4779    10650    10652 1
    4780       90       91 1
    4781     9099     9101 1
    4782     7263     7265 1
    4783     6264     6266 1
    4784     3876     3875 1
    4785      358      337 1
    4786      682      683 1
    4787     9441     9442 1
    4788     9036     9037 1
    4789     9198     9199 1
    4790     7443     7444 1
    4791     4725     4726 1
    4792     4443     4444 1
    4793     5445     5446 1
    4794     9279     9280 1
    4795     7200     7201 1
    4796      754      755 1
    4797     1180     1181 1
    4798      418      419 1
    4799     3648     3649 1
    4800     4536     4538 1
    4801     3400     3401 1
    4802      857      858 1
    4803      208      209 1
    4804      863      864 1
    4805     1634     1635 1
    4806      320      321 1
    4807      446      447 1
    4808     1759     1760 1
    4809     6888     6889 1
    4810     1431     1430 1
    4811     6645     6646 1
    4812     8724     8725 1
    4813     3921     3922 1
    4814     2609     2612 1
    4815     5520     5522 1
    4816     5925     5927 1
    4817     7761     7763 1
    4818     7518     7520 1
    4819     5007     5009 1
    4820     5682     5684 1
    4821     5763     5765 1
    4822     2447     2450 1
    4823     1801     1800 1
    4824     4926     4928 1
    4825     2970     2971 1
    4826     2769     2770 1
    4827      483      484 1
    4828     1898     1899 1
    4829     1557     1558 1
    4830     3638     3639 1
    4831     1214     1215 1
    4832     2018     2019 1
    4833    10770    10771 1
    4834    11688    11689 1
    4835     7200     7202 1
    4836     3246     3247 1
    4837     2484     2485 1
    4838     2951     2952 1
    4839     4247     4246 1
    4840     2080     2081 1
    4841     3793     3794 1
    4842     3133     3134 1
    4843      491      492 1
    4844     8685     8687 1
    4845     1518     1519 1
    4846     9762     9763 1
    4847    10167    10168 1
    4848     9924     9925 1
    4849    11517    11518 1
    4850    10005    10006 1
    4851     8964     8966 1
    4852     1465     1466 1
    4853    10818    10820 1
    4854     9603     9605 1
    4855    11358    11360 1
    4856    10980    10982 1
    4857     2930     2929 1
    4858     2597     2596 1
    4859     2412     2411 1
    4860    10854    10856 1
    4861     1885     1884 1
    4862     2115     2116 1
    4863     1725     1726 1
    4864     3907     3908 1
    4865     3856     3857 1
    4866     1050     1051 1
    4867      939      940 1
    4868      912      913 1
    4869     2099     2100 1
    4870     9384     9385 1
    4871     4293     4294 1
    4872      344      345 1
    4873     3945     3934 1
    4874     7305     7306 1
    4875     7953     7954 1
    4876     5280     5281 1
    4877     7791     7792 1
    4878     6036     6037 1
    4879     7467     7468 1
    4880      602      604 1
    4881     2627     2628 1
    4882     2988     2990 1
    4883     2098     2099 1
    4884     2278     2279 1
    4885     3361     3362 1
    4886     2491     2492 1
    4887     2095     2096 1
    4888     2170     2171 1
    4889      653      654 1
    4890    10449    10450 1
    4891    10611    10612 1
    4892     2006     1995 1
    4893      466      445 1
    4894      306      308 1
    4895     1220     1219 1
    4896      679      680 1
    4897     3917     3906 1
    4898    11748    11750 1
    4899    11586    11588 1
    4900    11937    11939 1
    4901     2404     2405 1
    4902     2486     2485 1
    4903    10020    10022 1
    4904     3390     3389 1
    4905    11775    11777 1
    4906     1678     1676 1
    4907      889      890 1
    4908     4473     4475 1
    4909     2335     2336 1
    4910     3409     3410 1
    4911     3187     3188 1
    4912     4261     4262 1
    4913     3804     3807 1
    4914     8784     8785 1
    4915     8541     8542 1
    4916     6624     6625 1
    4917     2839     2840 1
    4918     6786     6787 1
    4919     1979     1968 1
    4920     6708     6710 1
    4921     8787     8789 1
    4922     8463     8465 1
    4923     8544     8546 1
    4924     6627     6629 1
    4925     6891     6892 1
    4926     6789     6791 1
    4927     7728     7729 1
    4928     5055     5056 1
    4929     5811     5812 1
    4930     3340     3339 1
    4931     3916     3905 1
    4932    10401    10402 1
    4933    10428    10429 1
    4934     3692     3693 1
    4935    10239    10240 1
    4936    10590    10591 1
    4937    11238    11239 1
    4938     1544     1545 1
    4939     3521     3522 1
    4940     2984     2985 1
    4941     4317     4318 1
    4942     3568     3569 1
    4943     2206     2207 1
    4944    11013    11015 1
    4945    10581    10583 1
    4946    11418    11420 1
    4947     1043     1044 1
    4948      842      843 1
    4949     1268     1269 1
    4950     9663     9665 1
    4951    11580    11582 1
    4952     1691     1692 1
    4953     3670     3672 1
    4954      196      197 1
    4955     5490     5491 1
    4956     9324     9325 1
    4957     3686     3687 1
    4958     2970     2968 1
    4959      212      213 1
    4960      816      817 1
    4961    10518    10520 1
    4962    11355    11357 1
    4963     3153     3154 1
    4964    10113    10115 1
    4965     9600     9602 1
    4966    11868    11870 1
    4967    10950    10952 1
    4968     9951     9953 1
    4969       48       49 1
    4970      697      698 1
    4971      444      445 1
    4972    10089    10091 1
    4973    11088    11090 1
    4974    12006    12008 1
    4975    10926    10928 1
    4976    11844    11846 1
    4977      930      931 1
    4978     4267     4268 1
    4979     4758     4759 1
    4980     9261     9262 1
    4981     4941     4942 1
    4982     9180     9181 1
    4983     8019     8020 1
    4984     8127     8128 1
    4985     5697     5698 1
    4986     8046     8047 1
    4987      191      192 1
    4988     1809     1810 1
    4989     4039     4040 1
    4990     6180     6181 1
    4991     2966     2967 1
    4992      548      549 1
    4993     2147     2148 1
    4994      133      134 1
    4995      782      783 1
    4996     3986     3975 1
    4997     7962     7963 1
    4998     4070     4059 1
    4999      937      938 1
    5000      841      842 1
    5001     4560     4561 1
    5002     2552     2553 1
    5003      156      155 1
    5004     3821     3822 1
    5005     3059     3060 1
    5006      621      622 1
    5007     1021     1020 1
    5008    10776    10777 1
    5009    10452    10453 1
    5010    11532    11533 1
    5011     4638     4640 1
    5012    10614    10615 1
    5013     2335     2334 1
    5014     2105     2106 1
    5015     2007     1996 1
    5016      459      460 1
    5017      462      463 1
    5018    10875    10876 1
    5019     3436     3437 1
    5020     2362     2363 1
    5021     3757     3759 1
    5022      602      605 1
    5023    11016    11017 1
    5024    11097    11098 1
    5025    10935    10936 1
    5026     6906     6907 1
    5027     6663     6664 1
    5028     2319     2320 1
    5029     8742     8743 1
    5030     7509     7511 1
    5031     4917     4919 1
    5032     9507     9509 1
    5033     4998     5000 1
    5034     5916     5918 1
    5035     5673     5675 1
    5036     5754     5756 1
    5037     7752     7754 1
    5038     5511     5513 1
    5039     7503     7505 1
    5040     1654     1655 1
    5041     8772     8774 1
    5042     6693     6695 1
    5043     8610     8612 1
    5044     3274     3275 1
    5045     7233     7235 1
    5046     3610     3611 1
    5047     8988     8990 1
    5048    11565    11567 1
    5049       96       97 1
    5050    11529    11531 1
    5051     4632     4634 1
    5052     3205     3206 1
    5053     3637     3638 1
    5054     2400     2403 1
    5055     5859     5860 1
    5056    10257    10258 1
    5057     4701     4702 1
    5058     4809     4810 1
    5059      149      150 1
    5060     3800     3801 1
    5061     6042     6043 1
    5062      560      561 1
    5063     8088     8090 1
    5064     3936     3937 1
    5065    11793    11794 1
    5066      215      216 1
    5067    10038    10039 1
    5068     4047     4048 1
    5069     3558     3559 1
    5070     2256     2257 1
    5071     3759     3760 1
    5072     3225     3226 1
    5073     4220     4221 1
    5074     3768     3769 1
    5075     3333     3334 1
    5076     4509     4511 1
    5077        5        6 1
    5078     1763     1764 1
    5079     3255     3256 1
    5080     3792     3793 1
    5081     3144     3145 1
    5082     3570     3571 1
    5083     3497     3498 1
    5084      223      222 1
    5085     9441     9443 1
    5086     9198     9200 1
    5087     7443     7445 1
    5088     4443     4445 1
    5089      503      504 1
    5090     1852     1841 1
    5091     1969     1970 1
    5092     2075     2076 1
    5093     1154     1155 1
    5094     1444     1445 1
    5095      731      732 1
    5096     4319     4318 1
    5097     2806     2808 1
    5098      592      593 1
    5099     1666     1667 1
    5100     2219     2220 1
    5101     4245     4246 1
    5102     2949     2950 1
    5103     2748     2749 1
    5104     3060     3061 1
    5105     2723     2724 1
    5106     2399     2400 1
    5107     3263     3264 1
    5108     2353     2354 1
    5109    11334    11336 1
    5110     1039     1040 1
    5111    11652    11653 1
    5112     9654     9655 1
    5113    11490    11491 1
    5114    11409    11410 1
    5115     9735     9736 1
    5116     9573     9574 1
    5117     3582     3584 1
    5118    11571    11572 1
    5119     8181     8183 1
    5120     4746     4747 1
    5121     4665     4666 1
    5122     1723     1724 1
    5123      850      851 1
    5124     3020     2999 1
    5125     3810     3811 1
    5126     3583     3584 1
    5127      200      201 1
    5128     5913     5914 1
    5129      849      850 1
    5130      933      935 1
    5131     1722     1723 1
    5132     8919     8921 1
    5133     3696     3698 1
    5134     2982     2983 1
    5135     4315     4316 1
    5136    11639    11637 1
    5137     3614     3615 1
    5138     4191     4192 1
    5139     7719     7720 1
    5140     9096     9097 1
    5141     4884     4885 1
    5142     5640     5641 1
    5143     9258     9259 1
    5144      144      145 1
    5145     3021     3022 1
    5146     3876     3877 1
    5147      710      712 1
    5148      278      280 1
    5149     1964     1953 1
    5150     4193     4194 1
    5151     3386     3387 1
    5152     7185     7186 1
    5153        6        7 1
    5154     1764     1765 1
    5155     2167     2168 1
    5156     6573     6574 1
    5157     8490     8491 1
    5158     7572     7573 1
    5159     4899     4900 1
    5160     9489     9490 1
    5161     5655     5656 1
    5162     6735     6736 1
    5163       43       44 1
    5164      345      346 1
    5165     1206     1207 1
    5166      894      895 1
    5167     2055     2056 1
    5168     9063     9065 1
    5169     2343     2344 1
    5170     5151     5153 1
    5171     6609     6611 1
    5172     5907     5909 1
    5173     6069     6071 1
    5174     8364     8366 1
    5175     6447     6449 1
    5176     8526     8528 1
    5177     2478     2479 1
    5178     5133     5135 1
    5179     5619     5621 1
    5180     5889     5891 1
    5181     6051     6053 1
    5182     7698     7700 1
    5183     8613     8615 1
    5184     8856     8858 1
    5185     6426     6428 1
    5186     6504     6505 1
    5187     7245     7246 1
    5188     4303     4304 1
    5189     5607     5608 1
    5190     7362     7363 1
    5191     7605     7606 1
    5192     9360     9361 1
    5193    10803    10805 1
    5194    11046    11048 1
    5195      102      103 1
    5196      640      641 1
    5197     1714     1715 1
    5198    10965    10967 1
    5199     9828     9830 1
    5200    11907    11909 1
    5201     2659     2660 1
    5202     3733     3734 1
    5203     4845     4847 1
    5204      752      753 1
    5205      878      879 1
    5206     3106     3107 1
    5207      630      631 1
    5208      416      417 1
    5209     1505     1506 1
    5210     1712     1713 1
    5211     8886     8887 1
    5212     8805     8806 1
    5213     7050     7051 1
    5214     6969     6970 1
    5215     4247     4248 1
    5216      897      896 1
    5217     6807     6808 1
    5218     9048     9049 1
    5219     8643     8644 1
    5220     9135     9136 1
    5221     8217     8218 1
    5222     7380     7381 1
    5223     8379     8380 1
    5224     6918     6919 1
    5225     6756     6757 1
    5226     9213     9214 1
    5227     5541     5542 1
    5228     7134     7135 1
    5229     2865     2866 1
    5230      461      462 1
    5231     1142     1143 1
    5232    10632    10633 1
    5233     4533     4535 1
    5234     4298     4299 1
    5235    11364    11366 1
    5236    10824    10826 1
    5237     9609     9611 1
    5238     9393     9395 1
    5239     1922     1911 1
    5240    10959    10961 1
    5241    10986    10988 1
    5242     9537     9539 1
    5243    11373    11375 1
    5244    11130    11132 1
    5245    11454    11456 1
    5246     3107     3108 1
    5247     4333     4334 1
    5248     2813     2814 1
    5249     2245     2247 1
    5250     6891     6893 1
    5251     7728     7730 1
    5252     5055     5057 1
    5253     5811     5813 1
    5254     6495     6496 1
    5255     4644     4645 1
    5256     1605     1606 1
    5257     4404     4405 1
    5258    10734    10736 1
    5259    10896    10898 1
    5260    10653    10655 1
    5261     1532     1531 1
    5262     1308     1309 1
    5263    10872    10874 1
    5264    10332    10334 1
    5265      596      598 1
    5266     2622     2623 1
    5267      750      751 1
    5268      639      640 1
    5269     3311     3314 1
    5270     2555     2558 1
    5271     4204     4205 1
    5272     4043     4032 1
    5273     4201     4202 1
    5274     2550     2551 1
    5275     3773     3774 1
    5276     3545     3546 1
    5277     3011     3012 1
    5278      900      901 1
    5279      252      253 1
    5280     1344     1345 1
    5281     1148     1149 1
    5282     3771     3772 1
    5283     3038     3039 1
    5284     5880     5881 1
    5285     3629     3630 1
    5286     2432     2433 1
    5287     4542     4544 1
    5288     4422     4424 1
    5289     3832     3834 1
    5290     4228     4229 1
    5291     1946     1947 1
    5292     6276     6277 1
    5293     5250     5251 1
    5294     8004     8005 1
    5295     6357     6358 1
    5296     4710     4711 1
    5297     4791     4792 1
    5298     6087     6088 1
    5299     6249     6250 1
    5300     8085     8086 1
    5301     8274     8275 1
    5302     5121     5122 1
    5303     1862     1863 1
    5304     1673     1674 1
    5305     1909     1898 1
    5306      911      912 1
    5307     2189     2190 1
    5308      699      700 1
    5309     2254     2255 1
    5310     4054     4055 1
    5311     2251     2252 1
    5312     2788     2789 1
    5313      710      713 1
    5314      278      281 1
    5315    10920    10921 1
    5316    10125    10126 1
    5317    11880    11881 1
    5318     9963     9964 1
    5319    10962    10963 1
    5320     5367     5368 1
    5321     2643     2644 1
    5322     7851     7852 1
    5323     5961     5962 1
    5324     8202     8203 1
    5325     8040     8041 1
    5326     7689     7690 1
    5327     5178     5179 1
    5328     7911     7913 1
    5329     4076     4077 1
    5330     6741     6743 1
    5331      548      550 1
    5332     1567     1570 1
    5333     8847     8848 1
    5334     9009     9010 1
    5335     7092     7093 1
    5336      416      414 1
    5337     1111     1112 1
    5338     3279     3278 1
    5339     2565     2566 1
    5340      274      272 1
    5341     4560     4562 1
    5342     1147     1146 1
    5343     7371     7372 1
    5344     8370     8371 1
    5345     1698     1699 1
    5346     1803     1804 1
    5347     3118     3117 1
    5348     6184     6183 1
    5349     8263     8262 1
    5350     3300     3301 1
    5351     4728     4729 1
    5352     1740     1739 1
    5353     3210     3211 1
    5354    10023    10025 1
    5355     1159     1160 1
    5356     4068     4069 1
    5357     2204     2205 1
    5358     3902     3903 1
    5359     3236     3237 1
    5360     1267     1268 1
    5361      622      623 1
    5362     3566     3567 1
    5363     1048     1049 1
    5364     4233     4234 1
    5365     3576     3577 1
    5366     3147     3148 1
    5367     2490     2491 1
    5368    11619    11620 1
    5369     3106     3105 1
    5370      111      112 1
    5371     3457     3458 1
    5372     8637     8639 1
    5373     1517     1518 1
    5374      806      807 1
    5375     1664     1665 1
    5376     1118     1119 1
    5377     1933     1932 1
    5378     2893     2895 1
    5379     2731     2733 1
    5380     4398     4399 1
    5381      867      868 1
    5382      435      436 1
    5383     2238     2241 1
    5384     2670     2673 1
    5385      960      959 1
    5386    10413    10415 1
    5387    11412    11414 1
    5388    10251    10253 1
    5389    10575    10577 1
    5390    11574    11576 1
    5391    11250    11252 1
    5392     9657     9659 1
    5393    10476    10478 1
    5394    10719    10721 1
    5395     7818     7820 1
    5396     4983     4985 1
    5397    11070    11072 1
    5398    12015    12017 1
    5399     6279     6281 1
    5400    11448    11450 1
    5401     9045     9046 1
    5402     8937     8938 1
    5403     2251     2250 1
    5404     3480     3482 1
    5405      666      667 1
    5406    11811    11812 1
    5407    11217    11218 1
    5408    11730    11731 1
    5409     6657     6658 1
    5410     6900     6901 1
    5411      136      137 1
    5412     8736     8737 1
    5413     4497     4498 1
    5414     1637     1638 1
    5415     4127     4128 1
    5416     7632     7634 1
    5417     1962     1963 1
    5418       81       82 1
    5419     1974     1975 1
    5420     2166     2167 1
    5421     1693     1694 1
    5422     2496     2495 1
    5423     3170     3171 1
    5424     3602     3603 1
    5425     2029     2028 1
    5426     3892     3893 1
    5427     2089     2090 1
    5428     8433     8435 1
    5429     4879     4878 1
    5430     2052     2053 1
    5431      231      233 1
    5432     4164     4165 1
    5433     1565     1566 1
    5434     3323     3324 1
    5435     8769     8771 1
    5436     8607     8609 1
    5437     6690     6692 1
    5438     8688     8690 1
    5439     1829     1830 1
    5440     8112     8114 1
    5441    11583    11584 1
    5442     9747     9748 1
    5443    11502    11503 1
    5444    11178    11179 1
    5445     9585     9586 1
    5446    11421    11422 1
    5447    11664    11665 1
    5448    11259    11260 1
    5449     9666     9667 1
    5450     4884     4886 1
    5451     7719     7721 1
    5452     2848     2849 1
    5453     9096     9098 1
    5454     9258     9260 1
    5455     5640     5642 1
    5456     4698     4699 1
    5457    10722    10724 1
    5458    10884    10886 1
    5459     1072     1073 1
    5460    10641    10643 1
    5461     4111     4112 1
    5462     3935     3936 1
    5463     3619     3620 1
    5464     3199     3200 1
    5465     2977     2978 1
    5466     2534     2513 1
    5467     3307     3308 1
    5468     4074     4075 1
    5469     4097     4098 1
    5470     2325     2326 1
    5471     6111     6112 1
    5472     5220     5221 1
    5473     5571     5572 1
    5474     5193     5194 1
    5475     6516     6517 1
    5476     7572     7574 1
    5477     4899     4901 1
    5478     6573     6575 1
    5479     7539     7540 1
    5480     5028     5029 1
    5481     6108     6109 1
    5482     9294     9295 1
    5483     7863     7864 1
    5484     5190     5191 1
    5485     5784     5785 1
    5486     7458     7459 1
    5487     7296     7297 1
    5488     9456     9457 1
    5489     1048     1047 1
    5490     1119     1120 1
    5491     1341     1342 1
    5492     1904     1905 1
    5493     2140     2141 1
    5494     3665     3666 1
    5495      887      888 1
    5496      569      570 1
    5497      445      446 1
    5498     1993     1994 1
    5499    10713    10714 1
    5500     9714     9715 1
    5501     9876     9877 1
    5502     3870     3871 1
    5503     1783     1784 1
    5504      305      306 1
    5505     3893     3894 1
    5506     2195     2196 1
    5507     1933     1934 1
    5508     2264     2265 1
    5509     4239     4228 1
    5510     5607     5609 1
    5511     7605     7607 1
    5512    11391    11393 1
    5513    11148    11150 1
    5514     9555     9557 1
    5515     7362     7364 1
    5516    11472    11474 1
    5517     9360     9362 1
    5518      771      773 1
    5519     4506     4507 1
    5520     1473     1474 1
    5521    10674    10675 1
    5522     2011     2012 1
    5523    10863    10864 1
    5524     2814     2815 1
    5525      555      557 1
    5526     3996     3997 1
    5527    10944    10945 1
    5528     3150     3152 1
    5529     3750     3752 1
    5530     3858     3860 1
    5531     6918     6920 1
    5532     6756     6758 1
    5533     5541     5543 1
    5534     9213     9215 1
    5535     7134     7136 1
    5536     8418     8419 1
    5537     8883     8885 1
    5538     5130     5132 1
    5539     6966     6968 1
    5540     5589     5591 1
    5541     9342     9344 1
    5542     5211     5213 1
    5543    10680    10682 1
    5544     7884     7886 1
    5545     9207     9209 1
    5546     2084     2085 1
    5547     3264     3265 1
    5548     1126     1127 1
    5549     1132     1133 1
    5550     2950     2951 1
    5551     9756     9758 1
    5552    10107    10109 1
    5553     3817     3818 1
    5554    10161    10163 1
    5555    11862    11864 1
    5556    10512    10514 1
    5557     9918     9920 1
    5558     9945     9947 1
    5559    11511    11513 1
    5560      876      877 1
    5561     1537     1538 1
    5562     7650     7651 1
    5563      530      531 1
    5564      100      101 1
    5565      103      104 1
    5566     1286     1287 1
    5567      743      744 1
    5568      342      341 1
    5569     1259     1257 1
    5570     7830     7831 1
    5571     7074     7075 1
    5572     8829     8830 1
    5573      399      400 1
    5574     2508     2510 1
    5575      474      475 1
    5576      161      162 1
    5577      576      577 1
    5578     1347     1348 1
    5579     1560     1561 1
    5580      824      825 1
    5581     2751     2752 1
    5582     9411     9412 1
    5583     9492     9493 1
    5584     5658     5659 1
    5585     7575     7576 1
    5586     3668     3669 1
    5587     4902     4903 1
    5588     1633     1634 1
    5589     7656     7657 1
    5590     7494     7495 1
    5591     5739     5740 1
    5592     1960     1961 1
    5593    10917    10918 1
    5594     3062     3063 1
    5595        2        4 1
    5596    10668    10669 1
    5597    10857    10858 1
    5598    10938    10939 1
    5599     4197     4198 1
    5600      456      457 1
    5601      128      129 1
    5602     1891     1892 1
    5603     1317     1318 1
    5604     1530     1531 1
    5605     1428     1429 1
    5606     1539     1540 1
    5607     2127     2128 1
    5608      990      991 1
    5609      567      568 1
    5610     3215     3216 1
    5611     7704     7706 1
    5612     5625     5627 1
    5613     3763     3764 1
    5614     2689     2690 1
    5615     2175     2176 1
    5616     1948     1949 1
    5617     5502     5503 1
    5618     2427     2428 1
    5619     5583     5584 1
    5620     7014     7015 1
    5621     8931     8932 1
    5622     7176     7177 1
    5623     8850     8851 1
    5624    11055    11057 1
    5625     7338     7339 1
    5626     9336     9337 1
    5627     5778     5780 1
    5628     5022     5024 1
    5629     7776     7778 1
    5630     1027     1030 1
    5631     8874     8875 1
    5632     6876     6877 1
    5633     4515     4516 1
    5634     6957     6958 1
    5635     8712     8713 1
    5636    11259    11261 1
    5637    11745    11747 1
    5638     2183     2184 1
    5639     4015     4016 1
    5640     3108     3109 1
    5641    10287    10289 1
    5642    10206    10208 1
    5643    10935    10937 1
    5644     3538     3539 1
    5645     2773     2774 1
    5646     4452     4454 1
    5647     2104     2093 1
    5648     1881     1882 1
    5649     6249     6251 1
    5650     6276     6278 1
    5651     5250     5252 1
    5652     6357     6359 1
    5653      948      949 1
    5654     8004     8006 1
    5655     6087     6089 1
    5656     8085     8087 1
    5657     8274     8276 1
    5658     6195     6197 1
    5659     4155     4156 1
    5660     2512     2511 1
    5661    11616    11618 1
    5662    11967    11968 1
    5663    10050    10051 1
    5664    10212    10213 1
    5665    10644    10645 1
    5666     7797     7798 1
    5667     5124     5125 1
    5668     1878     1879 1
    5669     3123     3124 1
    5670     3012     3013 1
    5671     2790     2791 1
    5672     9528     9529 1
    5673    10689    10690 1
    5674    10419    10420 1
    5675     9690     9691 1
    5676    11769    11770 1
    5677     3249     3250 1
    5678     3780     3781 1
    5679     3579     3580 1
    5680     2487     2488 1
    5681     3900     3901 1
    5682     2193     2194 1
    5683     2954     2955 1
    5684     3827     3828 1
    5685      871      870 1
    5686     4262     4263 1
    5687     8847     8849 1
    5688     2386     2387 1
    5689     9009     9011 1
    5690     7092     7094 1
    5691     1151     1152 1
    5692      839      840 1
    5693      796      797 1
    5694     1588     1589 1
    5695      268      269 1
    5696     1700     1701 1
    5697     1262     1263 1
    5698     1339     1340 1
    5699      256      257 1
    5700     1902     1903 1
    5701     1669     1670 1
    5702     4251     4252 1
    5703    11724    11726 1
    5704    11805    11807 1
    5705    11211    11213 1
    5706     2631     2632 1
    5707     3717     3718 1
    5708     2844     2845 1
    5709     2520     2521 1
    5710     3606     3607 1
    5711     3393     3394 1
    5712    10200    10202 1
    5713    10362    10364 1
    5714     1030     1031 1
    5715      706      707 1
    5716     2947     2949 1
    5717     3271     3273 1
    5718    12003    12004 1
    5719    10086    10087 1
    5720    11841    11842 1
    5721    10275    10276 1
    5722     5328     5330 1
    5723     9375     9376 1
    5724      759      760 1
    5725     2454     2457 1
    5726     3102     3105 1
    5727     1643     1642 1
    5728     2264     2243 1
    5729     2374     2375 1
    5730     7557     7559 1
    5731     3149     3152 1
    5732       92       93 1
    5733     2663     2666 1
    5734     5436     5438 1
    5735     2439     2440 1
    5736     3978     3979 1
    5737     3522     3523 1
    5738     4148     4149 1
    5739     3510     3511 1
    5740     4151     4152 1
    5741     9840     9841 1
    5742    11919    11920 1
    5743    10839    10840 1
    5744     3950     3951 1
    5745     4593     4594 1
    5746     2247     2248 1
    5747     3845     3846 1
    5748     2867     2868 1
    5749     4821     4822 1
    5750     3352     3353 1
    5751     2926     2927 1
    5752     3139     3140 1
    5753     8247     8248 1
    5754     6006     6007 1
    5755     8517     8518 1
    5756     8355     8356 1
    5757     6438     6439 1
    5758     5331     5332 1
    5759     6168     6169 1
    5760     6411     6412 1
    5761     8436     8437 1
    5762     6600     6601 1
    5763     3991     3992 1
    5764     7149     7151 1
    5765     9228     9230 1
    5766     8310     8312 1
    5767     5556     5558 1
    5768     1462     1463 1
    5769     2610     2612 1
    5770     3940     3941 1
    5771     9102     9104 1
    5772     7266     7268 1
    5773     7023     7025 1
    5774     7104     7106 1
    5775     7749     7751 1
    5776     3169     3170 1
    5777     4419     4420 1
    5778     4905     4906 1
    5779     9495     9496 1
    5780     9171     9172 1
    5781     5661     5662 1
    5782     7578     7579 1
    5783     7254     7255 1
    5784     9777     9779 1
    5785    11100    11102 1
    5786    11694    11696 1
    5787      883      884 1
    5788    12018    12020 1
    5789     9615     9617 1
    5790    11262    11264 1
    5791     3537     3538 1
    5792     3985     3986 1
    5793     2656     2657 1
    5794     4818     4820 1
    5795     3730     3731 1
    5796     3190     3191 1
    5797     8022     8023 1
    5798     7482     7483 1
    5799     9399     9400 1
    5800     8184     8185 1
    5801     5349     5350 1
    5802     5943     5944 1
    5803     7644     7645 1
    5804     5727     5728 1
    5805     6291     6292 1
    5806     5049     5050 1
    5807     6885     6886 1
    5808     7209     7210 1
    5809     2407     2408 1
    5810     6651     6652 1
    5811     6894     6895 1
    5812     2453     2454 1
    5813     7425     7426 1
    5814     5805     5806 1
    5815     4169     4170 1
    5816     8730     8731 1
    5817     6054     6055 1
    5818     5136     5137 1
    5819     8889     8890 1
    5820     6810     6811 1
    5821     5892     5893 1
    5822     9051     9052 1
    5823     6972     6973 1
    5824     3408     3409 1
    5825     4383     4384 1
    5826     4257     4258 1
    5827     7044     7046 1
    5828    11685    11686 1
    5829     1789     1790 1
    5830     1378     1379 1
    5831     2705     2706 1
    5832     1751     1752 1
    5833     1921     1922 1
    5834     2138     2137 1
    5835     3031     3032 1
    5836     3349     3350 1
    5837     2069     2070 1
    5838      159      160 1
    5839     1660     1661 1
    5840    10482    10484 1
    5841    11022    11024 1
    5842     9540     9541 1
    5843    11133    11134 1
    5844    11457    11458 1
    5845     3993     3994 1
    5846    10947    10948 1
    5847      359      360 1
    5848     6108     6110 1
    5849     5190     5192 1
    5850     5784     5786 1
    5851     7458     7460 1
    5852     7863     7865 1
    5853     9375     9377 1
    5854     5028     5030 1
    5855     1655     1656 1
    5856     7539     7541 1
    5857     7296     7298 1
    5858     8337     8338 1
    5859      492      493 1
    5860     2698     2700 1
    5861    11031    11033 1
    5862     1408     1406 1
    5863     2102     2103 1
    5864       51       52 1
    5865     1123     1124 1
    5866    10728    10730 1
    5867    10647    10649 1
    5868    10890    10892 1
    5869      114      115 1
    5870       99      100 1
    5871     1285     1286 1
    5872     2131     2132 1
    5873     4138     4137 1
    5874     5901     5903 1
    5875     6441     6443 1
    5876     5145     5147 1
    5877     8358     8360 1
    5878     8520     8522 1
    5879     6603     6605 1
    5880     2858     2837 1
    5881     3378     3379 1
    5882     6063     6065 1
    5883     1398     1399 1
    5884     3913     3914 1
    5885       98       99 1
    5886     1284     1285 1
    5887     1509     1510 1
    5888     3998     3999 1
    5889     2821     2822 1
    5890     4371     4373 1
    5891     1395     1396 1
    5892     4037     4038 1
    5893     6510     6512 1
    5894     2909     2910 1
    5895      360      361 1
    5896     1656     1657 1
    5897     3443     3444 1
    5898     1737     1738 1
    5899     6369     6370 1
    5900     8286     8287 1
    5901     4353     4354 1
    5902     4014     4003 1
    5903     6288     6289 1
    5904     6207     6208 1
    5905     8898     8899 1
    5906     6981     6982 1
    5907     7062     7063 1
    5908     8655     8656 1
    5909     8817     8818 1
    5910     9060     9061 1
    5911     6819     6820 1
    5912     2913     2914 1
    5913     3882     3883 1
    5914     3964     3965 1
    5915    11451    11452 1
    5916    11127    11128 1
    5917     9534     9535 1
    5918     9074     9072 1
    5919     2980     2979 1
    5920     5888     5886 1
    5921     1412     1415 1
    5922      578      579 1
    5923     5841     5843 1
    5924     7920     7922 1
    5925     5085     5087 1
    5926     5166     5168 1
    5927     7839     7841 1
    5928     7677     7679 1
    5929     4057     4046 1
    5930     5610     5611 1
    5931     9363     9364 1
    5932     7608     7609 1
    5933     7365     7366 1
    5934     6267     6269 1
    5935     5241     5243 1
    5936     6186     6188 1
    5937     6348     6350 1
    5938     6240     6242 1
    5939     7995     7997 1
    5940     6078     6080 1
    5941     8076     8078 1
    5942     8265     8267 1
    5943      122      123 1
    5944     4860     4861 1
    5945     9639     9641 1
    5946      967      968 1
    5947     4085     4086 1
    5948     3432     3433 1
    5949      173      174 1
    5950     3184     3185 1
    5951      533      534 1
    5952      770      771 1
    5953       22       23 1
    5954     7098     7100 1
    5955      503      501 1
    5956     2287     2288 1
    5957     8478     8479 1
    5958     4337     4338 1
    5959     6723     6724 1
    5960     4159     4160 1
    5961     3995     3996 1
    5962     2236     2237 1
    5963     4788     4789 1
    5964     2231     2234 1
    5965     4151     4150 1
    5966      123      125 1
    5967     3008     3009 1
    5968      158      159 1
    5969     2068     2069 1
    5970     8919     8920 1
    5971     1421     1422 1
    5972     2039     2040 1
    5973       75       76 1
    5974     1851     1852 1
    5975    10743    10744 1
    5976    11445    11446 1
    5977     5445     5447 1
    5978    10905    10906 1
    5979     2379     2380 1
    5980     2205     2206 1
    5981     2385     2386 1
    5982     2496     2497 1
    5983     3795     3796 1
    5984     2271     2272 1
    5985     2957     2958 1
    5986     2963     2964 1
    5987     3903     3904 1
    5988     2607     2608 1
    5989     8874     8876 1
    5990     6957     6959 1
    5991     6876     6878 1
    5992     4515     4517 1
    5993     7157     7155 1
    5994     8712     8714 1
    5995     2035     2024 1
    5996     3714     3715 1
    5997     3825     3826 1
    5998     3597     3598 1
    5999     4135     4136 1
    6000     3396     3397 1
    6001     1847     1848 1
    6002     3708     3709 1
    6003     1586     1587 1
    6004     2415     2416 1
    6005     3959     3960 1
    6006     1025     1026 1
    6007     9846     9847 1
    6008    10845    10846 1
    6009    11925    11926 1
    6010      875      876 1
    6011     4004     4005 1
    6012     3057     3055 1
    6013     2027     2028 1
    6014     5271     5272 1
    6015     7944     7945 1
    6016     9423     9425 1
    6017     4518     4519 1
    6018     1635     1636 1
    6019      665      663 1
    6020    11385    11387 1
    6021    11142    11144 1
    6022    11466    11468 1
    6023     9549     9551 1
    6024     1038     1039 1
    6025    10233    10235 1
    6026     1678     1675 1
    6027     4350     4339 1
    6028      309      310 1
    6029      420      421 1
    6030      669      670 1
    6031     1071     1072 1
    6032     2547     2546 1
    6033     3405     3404 1
    6034     3285     3286 1
    6035     2234     2235 1
    6036     1992     1981 1
    6037     9420     9421 1
    6038     5748     5749 1
    6039     7665     7666 1
    6040     7503     7504 1
    6041    10380    10381 1
    6042    10542    10543 1
    6043     3368     3369 1
    6044    10866    10867 1
    6045     7170     7171 1
    6046     5577     5578 1
    6047     7008     7009 1
    6048     8925     8926 1
    6049     7332     7333 1
    6050     8844     8845 1
    6051     5415     5416 1
    6052     9006     9007 1
    6053     9330     9331 1
    6054     7089     7090 1
    6055      234      233 1
    6056     5877     5879 1
    6057     1959     1960 1
    6058     1965     1954 1
    6059      409      410 1
    6060     4196     4185 1
    6061     4026     4027 1
    6062     3284     3285 1
    6063       45       44 1
    6064     3176     3177 1
    6065     4848     4849 1
    6066     6833     6831 1
    6067     9390     9392 1
    6068     7473     7475 1
    6069     7311     7313 1
    6070     7959     7961 1
    6071     5286     5288 1
    6072     5124     5126 1
    6073     6042     6044 1
    6074     7797     7799 1
    6075     9855     9856 1
    6076    11934    11935 1
    6077     3172     3173 1
    6078     4806     4807 1
    6079    11316    11318 1
    6080     4272     4271 1
    6081     3182     3161 1
    6082     3091     3092 1
    6083     3214     3215 1
    6084     1094     1095 1
    6085     2614     2615 1
    6086     4077     4078 1
    6087     8247     8249 1
    6088     1371     1372 1
    6089     6006     6008 1
    6090     8754     8755 1
    6091     6675     6676 1
    6092     8592     8593 1
    6093     7188     7189 1
    6094     8517     8519 1
    6095     3951     3952 1
    6096     5433     5434 1
    6097     9429     9430 1
    6098     9267     9268 1
    6099     3122     3123 1
    6100     1587     1588 1
    6101     3338     3339 1
    6102     1338     1339 1
    6103      588      589 1
    6104     1335     1336 1
    6105    10806    10807 1
    6106    10698    10699 1
    6107     2837     2838 1
    6108    10968    10969 1
    6109    11064    11065 1
    6110    10821    10822 1
    6111    10983    10984 1
    6112     3362     3363 1
    6113     4153     4154 1
    6114     2978     2979 1
    6115     1548     1550 1
    6116     9495     9497 1
    6117     5661     5663 1
    6118     7578     7580 1
    6119     9171     9173 1
    6120     4905     4907 1
    6121    10473    10475 1
    6122     1012     1013 1
    6123    10797    10799 1
    6124     1373     1374 1
    6125    11040    11042 1
    6126      265      266 1
    6127    10635    10637 1
    6128     7800     7802 1
    6129     9699     9701 1
    6130     9780     9782 1
    6131    11697    11699 1
    6132     9807     9809 1
    6133      987      989 1
    6134     9861     9863 1
    6135     9888     9890 1
    6136     9618     9620 1
    6137      260      261 1
    6138    11886    11888 1
    6139     3641     3642 1
    6140    11361    11363 1
    6141    10524    10526 1
    6142     9606     9608 1
    6143     2934     2936 1
    6144     5892     5894 1
    6145     5136     5138 1
    6146     8889     8891 1
    6147     6054     6056 1
    6148     9051     9053 1
    6149     6972     6974 1
    6150     6810     6812 1
    6151     5319     5321 1
    6152     6561     6563 1
    6153     6642     6644 1
    6154      699      698 1
    6155     3048     3049 1
    6156     4800     4801 1
    6157       42       43 1
    6158     2302     2303 1
    6159     4139     4140 1
    6160    10386    10388 1
    6161    10548    10550 1
    6162     5847     5849 1
    6163     5091     5093 1
    6164     1076     1077 1
    6165     7845     7847 1
    6166     7926     7928 1
    6167      668      669 1
    6168     7683     7685 1
    6169     2838     2839 1
    6170     2590     2591 1
    6171     5172     5174 1
    6172     7560     7561 1
    6173     9477     9478 1
    6174     7236     7237 1
    6175     4001     3990 1
    6176     2812     2813 1
    6177      720      721 1
    6178      516      517 1
    6179     2724     2726 1
    6180     3775     3774 1
    6181     7642     7641 1
    6182     5725     5724 1
    6183     2211     2212 1
    6184      477      478 1
    6185     1440     1441 1
    6186     1008     1009 1
    6187     1688     1689 1
    6188     7143     7144 1
    6189     1001     1002 1
    6190     4287     4288 1
    6191      986      985 1
    6192     2123     2124 1
    6193     8304     8305 1
    6194     9222     9223 1
    6195     4866     4868 1
    6196     5550     5551 1
    6197     1054     1055 1
    6198     3728     3729 1
    6199    11721    11722 1
    6200    10182    10183 1
    6201    10344    10345 1
    6202     1940     1941 1
    6203     6114     6115 1
    6204     5115     5116 1
    6205     7869     7870 1
    6206     5790     5791 1
    6207     5196     5197 1
    6208     6033     6034 1
    6209     5034     5035 1
    6210     7788     7789 1
    6211     7950     7951 1
    6212     4575     4577 1
    6213     1738     1739 1
    6214     2139     2140 1
    6215     7596     7598 1
    6216     6327     6329 1
    6217     5598     5600 1
    6218     8163     8165 1
    6219     9351     9353 1
    6220     6489     6491 1
    6221     2905     2906 1
    6222     8406     8408 1
    6223     2677     2679 1
    6224     7353     7355 1
    6225     4218     4219 1
    6226     2680     2681 1
    6227    10476    10477 1
    6228    10800    10801 1
    6229    11556    11557 1
    6230     4277     4278 1
    6231     7986     7987 1
    6232     6231     6232 1
    6233     8148     8149 1
    6234     5313     5314 1
    6235    10638    10639 1
    6236     5295     5297 1
    6237     8130     8132 1
    6238    11487    11489 1
    6239     6294     6296 1
    6240     9732     9734 1
    6241     6213     6215 1
    6242    12027    12029 1
    6243    11649    11651 1
    6244    11406    11408 1
    6245     7968     7970 1
    6246     9570     9572 1
    6247    11568    11570 1
    6248     8286     8288 1
    6249     6369     6371 1
    6250     4353     4355 1
    6251     6288     6290 1
    6252     6207     6209 1
    6253      196      175 1
    6254     1426     1427 1
    6255     1207     1208 1
    6256     5109     5111 1
    6257     7782     7784 1
    6258    11664    11666 1
    6259     3508     3509 1
    6260     3756     3757 1
    6261     3322     3323 1
    6262     2674     2675 1
    6263     6351     6352 1
    6264     7212     7213 1
    6265     8967     8968 1
    6266     4088     4089 1
    6267     3264     3267 1
    6268     7587     7588 1
    6269     5967     5968 1
    6270     7047     7048 1
    6271     5373     5374 1
    6272     4121     4122 1
    6273     4036     4037 1
    6274      736      715 1
    6275     2778     2779 1
    6276     2346     2347 1
    6277      557      558 1
    6278     1109     1110 1
    6279     1572     1573 1
    6280     9768     9769 1
    6281    10146    10147 1
    6282    11523    11524 1
    6283     9930     9931 1
    6284    10308    10309 1
    6285      413      414 1
    6286     2600     2601 1
    6287     2381     2382 1
    6288       84       85 1
    6289     4581     4583 1
    6290     4235     4236 1
    6291     2274     2273 1
    6292     9036     9038 1
    6293     2925     2926 1
    6294     2860     2862 1
    6295     2161     2150 1
    6296     1597     1598 1
    6297     1348     1349 1
    6298    10374    10376 1
    6299    10536    10538 1
    6300    10860    10862 1
    6301    10320    10322 1
    6302     3498     3499 1
    6303     3609     3610 1
    6304     2625     2626 1
    6305     2736     2737 1
    6306     4328     4329 1
    6307     3387     3388 1
    6308     7866     7867 1
    6309     3639     3640 1
    6310     8433     8434 1
    6311     2353     2355 1
    6312     8721     8722 1
    6313     1678     1679 1
    6314     1361     1362 1
    6315     8676     8678 1
    6316     4500     4501 1
    6317     3534     3537 1
    6318     1546     1525 1
    6319      790      769 1
    6320     2992     2991 1
    6321     3388     3389 1
    6322     2105     2094 1
    6323      862      863 1
    6324     1102     1103 1
    6325      343      344 1
    6326      565      566 1
    6327      498      499 1
    6328     3074     3053 1
    6329     4286     4287 1
    6330     3238     3239 1
    6331     3130     3131 1
    6332     4704     4705 1
    6333     3886     3887 1
    6334     3486     3487 1
    6335     2339     2342 1
    6336     3195     3196 1
    6337     2433     2434 1
    6338     3201     3202 1
    6339     2322     2323 1
    6340      258      259 1
    6341     1668     1667 1
    6342     8448     8449 1
    6343     6612     6613 1
    6344      332      333 1
    6345     8367     8368 1
    6346     8529     8530 1
    6347     6450     6451 1
    6348     6531     6532 1
    6349     1103     1104 1
    6350      353      354 1
    6351     3327     3328 1
    6352     2201     2202 1
    6353     3137     3138 1
    6354     3030     3029 1
    6355     2660     2661 1
    6356     2801     2802 1
    6357     2864     2865 1
    6358     4398     4400 1
    6359     2713     2714 1
    6360     6843     6844 1
    6361     8750     8748 1
    6362     7383     7384 1
    6363     9138     9139 1
    6364     6671     6669 1
    6365     7319     7317 1
    6366     2001     2002 1
    6367     1635     1637 1
    6368     6015     6017 1
    6369     8256     8258 1
    6370     6177     6179 1
    6371     6420     6422 1
    6372     5340     5342 1
    6373     5997     5999 1
    6374     8238     8240 1
    6375     8346     8348 1
    6376     8427     8429 1
    6377     8508     8510 1
    6378     5322     5324 1
    6379     6591     6593 1
    6380     6402     6404 1
    6381     6429     6431 1
    6382     6159     6161 1
    6383     7668     7670 1
    6384     8016     8017 1
    6385     2214     2215 1
    6386     9420     9422 1
    6387     5748     5750 1
    6388     2638     2639 1
    6389     4611     4612 1
    6390     7929     7930 1
    6391     5850     5851 1
    6392     7848     7849 1
    6393     5094     5095 1
    6394     4830     4832 1
    6395     4038     4039 1
    6396     7686     7687 1
    6397     5175     5176 1
    6398      245      244 1
    6399    11343    11345 1
    6400    10749    10751 1
    6401     2696     2675 1
    6402    10830    10832 1
    6403     9588     9590 1
    6404     4497     4499 1
    6405     4278     4279 1
    6406     2974     2975 1
    6407     2437     2438 1
    6408      851      852 1
    6409     3430     3431 1
    6410     1310     1311 1
    6411     1765     1766 1
    6412     4098     4087 1
    6413     2326     2327 1
    6414       62       63 1
    6415     4629     4630 1
    6416     6804     6805 1
    6417     7992     7993 1
    6418     3673     3674 1
    6419     7569     7570 1
    6420     3055     3056 1
    6421     4896     4897 1
    6422     9486     9487 1
    6423     5652     5653 1
    6424     6237     6238 1
    6425     8109     8110 1
    6426     9105     9106 1
    6427     7269     7270 1
    6428     7026     7027 1
    6429     7107     7108 1
    6430     9884     9882 1
    6431      235      234 1
    6432     1250     1251 1
    6433     2921     2922 1
    6434     2943     2944 1
    6435     6813     6815 1
    6436    10068    10070 1
    6437     9798     9800 1
    6438      833      834 1
    6439     1802     1803 1
    6440    11985    11987 1
    6441     3958     3947 1
    6442    11715    11717 1
    6443    10149    10151 1
    6444     9717     9719 1
    6445    10230    10232 1
    6446     5802     5804 1
    6447      184      185 1
    6448    11670    11672 1
    6449    10752    10754 1
    6450     4530     4531 1
    6451     4482     4483 1
    6452    10998    10999 1
    6453    10485    10486 1
    6454     3695     3696 1
    6455     8352     8353 1
    6456     3864     3863 1
    6457    11079    11080 1
    6458     3649     3650 1
    6459    10566    10567 1
    6460    10683    10684 1
    6461     9684     9685 1
    6462    11601    11602 1
    6463     9522     9523 1
    6464    11763    11764 1
    6465      860      859 1
    6466     8754     8756 1
    6467     6675     6677 1
    6468     8592     8594 1
    6469     7188     7190 1
    6470     5433     5435 1
    6471     9429     9431 1
    6472     9267     9269 1
    6473      489      490 1
    6474     4356     4357 1
    6475     1744     1745 1
    6476      925      926 1
    6477      879      880 1
    6478    11004    11006 1
    6479     2796     2795 1
    6480    11085    11087 1
    6481    11436    11438 1
    6482    11193    11195 1
    6483    10923    10925 1
    6484     1710     1712 1
    6485    11538    11540 1
    6486    11025    11027 1
    6487    10458    10460 1
    6488     4386     4388 1
    6489    10620    10622 1
    6490     4776     4778 1
    6491    10782    10784 1
    6492    11223    11225 1
    6493    11421    11423 1
    6494      274      271 1
    6495     9264     9266 1
    6496       20       21 1
    6497      531      532 1
    6498     1293     1294 1
    6499     1822     1823 1
    6500     5970     5971 1
    6501     3227     3228 1
    6502      716      717 1
    6503     2687     2688 1
    6504     3449     3450 1
    6505      468      469 1
    6506     2690     2691 1
    6507     3830     3831 1
    6508     6189     6191 1
    6509     7017     7018 1
    6510     7179     7180 1
    6511     8934     8935 1
    6512     5586     5587 1
    6513     7341     7342 1
    6514     5424     5425 1
    6515      169      170 1
    6516      123      124 1
    6517     3777     3778 1
    6518     2373     2374 1
    6519     4346     4347 1
    6520     3710     3711 1
    6521     4770     4772 1
    6522    10155    10156 1
    6523    10479    10480 1
    6524    10398    10399 1
    6525    10236    10237 1
    6526    10560    10561 1
    6527     9993     9994 1
    6528     1247     1248 1
    6529     7407     7409 1
    6530     6897     6898 1
    6531     5061     5062 1
    6532     5817     5818 1
    6533     7734     7735 1
    6534     4647     4649 1
    6535     4407     4409 1
    6536     1628     1631 1
    6537     4022     4023 1
    6538      224      227 1
    6539     9378     9380 1
    6540     7731     7733 1
    6541     7299     7301 1
    6542     7461     7463 1
    6543     5814     5816 1
    6544     5058     5060 1
    6545    10233    10234 1
    6546     9531     9532 1
    6547    10071    10072 1
    6548    11988    11989 1
    6549     6582     6583 1
    6550     8499     8500 1
    6551     9693     9694 1
    6552    11772    11773 1
    6553    11610    11611 1
    6554      436      437 1
    6555     6744     6745 1
    6556     1574     1577 1
    6557     5328     5329 1
    6558      487      490 1
    6559     6552     6553 1
    6560     6390     6391 1
    6561     1355     1354 1
    6562        1        4 1
    6563     8631     8632 1
    6564     6471     6472 1
    6565      998      997 1
    6566      140      141 1
    6567     1254     1255 1
    6568     2676     2677 1
    6569     3421     3422 1
    6570     6114     6116 1
    6571     7869     7871 1
    6572     5115     5117 1
    6573     5196     5198 1
    6574     5790     5792 1
    6575     6033     6035 1
    6576     5277     5279 1
    6577     5034     5036 1
    6578     1263     1264 1
    6579     7950     7952 1
    6580     3849     3848 1
    6581     3738     3737 1
    6582     2553     2554 1
    6583     3849     3850 1
    6584     3233     3234 1
    6585     6333     6335 1
    6586     4232     4233 1
    6587     4062     4063 1
    6588     2480     2481 1
    6589    11013    11014 1
    6590    10581    10582 1
    6591    11418    11419 1
    6592     9663     9664 1
    6593    11580    11581 1
    6594    10002    10004 1
    6595     2350     2349 1
    6596     6396     6398 1
    6597      175      176 1
    6598     3165     3166 1
    6599     2174     2163 1
    6600     1302     1303 1
    6601     1086     1087 1
    6602     1410     1411 1
    6603     1951     1940 1
    6604     3487     3489 1
    6605    10518    10519 1
    6606    11355    11356 1
    6607    10113    10114 1
    6608    11868    11869 1
    6609     9600     9601 1
    6610    10950    10951 1
    6611     9951     9952 1
    6612     4380     4381 1
    6613     3642     3645 1
    6614     3355     3356 1
    6615      853      854 1
    6616    10710    10712 1
    6617    11034    11036 1
    6618     4929     4931 1
    6619     5010     5012 1
    6620     5685     5687 1
    6621     5928     5930 1
    6622     5523     5525 1
    6623     7521     7523 1
    6624     5766     5768 1
    6625     7764     7766 1
    6626      391      390 1
    6627     3804     3806 1
    6628     8587     8586 1
    6629      165      166 1
    6630     8232     8233 1
    6631     8313     8314 1
    6632     8394     8395 1
    6633    11433    11434 1
    6634    11514    11515 1
    6635    10272    10273 1
    6636     9759     9760 1
    6637     5307     5308 1
    6638     6225     6226 1
    6639     8142     8143 1
    6640     7980     7981 1
    6641       14       15 1
    6642     9921     9922 1
    6643     8037     8039 1
    6644     3358     3359 1
    6645      949      950 1
    6646     4173     4174 1
    6647     1930     1931 1
    6648      265      264 1
    6649     9021     9022 1
    6650     2605     2606 1
    6651     5031     5033 1
    6652     4656     4657 1
    6653     4737     4738 1
    6654       40       41 1
    6655       52       53 1
    6656      545      546 1
    6657     4075     4076 1
    6658     1304     1307 1
    6659     1235     1236 1
    6660     6663     6665 1
    6661     6906     6908 1
    6662     8742     8744 1
    6663       50       51 1
    6664    11718    11719 1
    6665     9801     9802 1
    6666    11124    11125 1
    6667     4107     4108 1
    6668     3937     3938 1
    6669     9639     9640 1
    6670    11286    11287 1
    6671     6828     6829 1
    6672     3261     3262 1
    6673      675      674 1
    6674     7515     7516 1
    6675     7758     7759 1
    6676     8448     8450 1
    6677     6612     6614 1
    6678      332      334 1
    6679     8529     8531 1
    6680     6531     6533 1
    6681     8367     8369 1
    6682     4668     4670 1
    6683     6450     6452 1
    6684    11289    11291 1
    6685    10371    10373 1
    6686     1534     1535 1
    6687     1324     1325 1
    6688     2059     2060 1
    6689     1435     1436 1
    6690    10533    10535 1
    6691    11613    11615 1
    6692     4593     4595 1
    6693     1645     1646 1
    6694    11043    11045 1
    6695     3727     3728 1
    6696     2966     2945 1
    6697     2332     2333 1
    6698      736      737 1
    6699     1352     1354 1
    6700     3295     3296 1
    6701     4080     4081 1
    6702     2611     2612 1
    6703     3041     3044 1
    6704     2210     2211 1
    6705     9138     9140 1
    6706     1056     1057 1
    6707     6843     6845 1
    6708     7383     7385 1
    6709     3007     3006 1
    6710     8118     8119 1
    6711     3417     3418 1
    6712     3869     3870 1
    6713     4599     4600 1
    6714     4096     4097 1
    6715     3942     3943 1
    6716        3        4 1
    6717    10416    10417 1
    6718    10254    10255 1
    6719     3032     3033 1
    6720     4611     4613 1
    6721     5850     5852 1
    6722     2669     2668 1
    6723     7848     7850 1
    6724     4178     4179 1
    6725     7929     7931 1
    6726    11742    11744 1
    6727    10284    10286 1
    6728    10203    10205 1
    6729    11823    11825 1
    6730    10365    10367 1
    6731      689      690 1
    6732     1041     1042 1
    6733    10134    10135 1
    6734    10701    10702 1
    6735    11214    11215 1
    6736     4578     4579 1
    6737     9864     9865 1
    6738     1087     1088 1
    6739     4626     4627 1
    6740    10296    10297 1
    6741     9702     9703 1
    6742    10899    10900 1
    6743    10737    10738 1
    6744    11439    11440 1
    6745     9105     9107 1
    6746     7269     7271 1
    6747     7026     7028 1
    6748     7107     7109 1
    6749     6858     6860 1
    6750     6939     6941 1
    6751     7398     7400 1
    6752    10140    10142 1
    6753    10707    10709 1
    6754     9870     9872 1
    6755    11220    11222 1
    6756     9708     9710 1
    6757    10302    10304 1
    6758     1788     1789 1
    6759     7854     7855 1
    6760     4309     4298 1
    6761     9891     9893 1
    6762     9810     9812 1
    6763    10323    10325 1
    6764     9972     9974 1
    6765    11889    11891 1
    6766     3453     3452 1
    6767     1507     1508 1
    6768      745      746 1
    6769     2128     2129 1
    6770      781      782 1
    6771      787      788 1
    6772    11286    11288 1
    6773     9531     9533 1
    6774     8034     8036 1
    6775     8196     8198 1
    6776     1184     1185 1
    6777     5361     5363 1
    6778     5955     5957 1
    6779     3949     3950 1
    6780     1481     1480 1
    6781     1978     1977 1
    6782     5184     5185 1
    6783     7857     7858 1
    6784     8397     8398 1
    6785     2400     2402 1
    6786     4716     4717 1
    6787     4797     4798 1
    6788     1332     1333 1
    6789     1581     1582 1
    6790     2126     2127 1
    6791      992      993 1
    6792     3248     3249 1
    6793     1745     1746 1
    6794     1965     1966 1
    6795     3068     3069 1
    6796      256      255 1
    6797    11208    11209 1
    6798    10128    10129 1
    6799    10290    10291 1
    6800     8760     8761 1
    6801     6681     6682 1
    6802     8598     8599 1
    6803     4503     4505 1
    6804     6003     6005 1
    6805     6408     6410 1
    6806     8757     8759 1
    6807     3206     3203 1
    6808     8595     8597 1
    6809     8244     8246 1
    6810     2902     2903 1
    6811     2359     2360 1
    6812     3664     3665 1
    6813     6678     6680 1
    6814     3121     3122 1
    6815     1415     1416 1
    6816    11745    11746 1
    6817    11826    11827 1
    6818     5484     5486 1
    6819     7941     7943 1
    6820     6024     6026 1
    6821     5268     5270 1
    6822     9318     9320 1
    6823     7779     7781 1
    6824     7401     7403 1
    6825     5106     5108 1
    6826       15       16 1
    6827     5508     5510 1
    6828     1222     1201 1
    6829     7341     7343 1
    6830     7017     7019 1
    6831     7179     7181 1
    6832     5013     5014 1
    6833     4932     4933 1
    6834     5526     5527 1
    6835     8934     8936 1
    6836     5586     5588 1
    6837     5688     5689 1
    6838     5931     5932 1
    6839     5769     5770 1
    6840     7524     7525 1
    6841     7767     7768 1
    6842     1183     1184 1
    6843     3540     3541 1
    6844     3292     3293 1
    6845     1861     1862 1
    6846     1079     1080 1
    6847      677      678 1
    6848      854      855 1
    6849     1280     1281 1
    6850     1391     1392 1
    6851     2557     2558 1
    6852     8859     8860 1
    6853     6942     6943 1
    6854     6861     6862 1
    6855     8697     8698 1
    6856     3048     3051 1
    6857     6318     6319 1
    6858     2809     2810 1
    6859     3532     3533 1
    6860       86       87 1
    6861     1973     1974 1
    6862     1272     1273 1
    6863     6897     6899 1
    6864     3419     3422 1
    6865     5061     5063 1
    6866     5817     5819 1
    6867     7734     7736 1
    6868     3746     3747 1
    6869     3809     3810 1
    6870     3260     3261 1
    6871      953      954 1
    6872    10389    10390 1
    6873    10551    10552 1
    6874     3447     3448 1
    6875     2799     2800 1
    6876     2577     2578 1
    6877    11307    11308 1
    6878    11631    11632 1
    6879     2118     2107 1
    6880    10824    10825 1
    6881    11364    11365 1
    6882     9609     9610 1
    6883    10959    10960 1
    6884    10986    10987 1
    6885     3036     3037 1
    6886     2382     2383 1
    6887     3030     3031 1
    6888     3348     3349 1
    6889     3573     3574 1
    6890     2493     2494 1
    6891     3462     3463 1
    6892     1265     1266 1
    6893     6552     6554 1
    6894     6390     6392 1
    6895     6471     6473 1
    6896     8631     8633 1
    6897      722      723 1
    6898     4348     4349 1
    6899      611      612 1
    6900      364      365 1
    6901     1484     1485 1
    6902      287      288 1
    6903     1015     1016 1
    6904       73       74 1
    6905     9753     9755 1
    6906    11427    11429 1
    6907    11508    11510 1
    6908     9915     9917 1
    6909     3600     3601 1
    6910     3711     3712 1
    6911    10266    10268 1
    6912     2142     2143 1
    6913     3109     3110 1
    6914     3757     3758 1
    6915     3155     3156 1
    6916      170      173 1
    6917    11739    11741 1
    6918    11820    11822 1
    6919    10734    10735 1
    6920    10896    10897 1
    6921    10653    10654 1
    6922     7290     7292 1
    6923     5535     5537 1
    6924     1083     1084 1
    6925     9252     9254 1
    6926     8094     8096 1
    6927     3398     3377 1
    6928     4812     4813 1
    6929     2043     2044 1
    6930     1879     1880 1
    6931      753      754 1
    6932      104      105 1
    6933     4288     4289 1
    6934     8049     8051 1
    6935     2769     2768 1
    6936     3081     3080 1
    6937     3081     3082 1
    6938     2331     2332 1
    6939     1600     1579 1
    6940     3405     3406 1
    6941     1011     1012 1
    6942     3182     3183 1
    6943    11109    11110 1
    6944    11271    11272 1
    6945    10569    10570 1
    6946     1872     1873 1
    6947     1142     1144 1
    6948     2327     2328 1
    6949     2540     2541 1
    6950     2525     2526 1
    6951     3888     3886 1
    6952     4518     4520 1
    6953     3508     3510 1
    6954     7896     7897 1
    6955     5223     5224 1
    6956     4281     4282 1
    6957     8652     8653 1
    6958     7059     7060 1
    6959     5979     5980 1
    6960     4308     4297 1
    6961     8814     8815 1
    6962     5385     5386 1
    6963     4764     4765 1
    6964     1650     1651 1
    6965      888      889 1
    6966     2145     2146 1
    6967     7056     7057 1
    6968     8040     8042 1
    6969     5367     5369 1
    6970     4252     4241 1
    6971     7851     7853 1
    6972     5178     5180 1
    6973     5961     5963 1
    6974     8202     8204 1
    6975     7689     7691 1
    6976      209      210 1
    6977     2394     2396 1
    6978     7374     7376 1
    6979     9129     9131 1
    6980     8211     8213 1
    6981     8373     8375 1
    6982     2005     2004 1
    6983      328      326 1
    6984     2515     2516 1
    6985     8232     8234 1
    6986     8394     8396 1
    6987     8313     8315 1
    6988     6714     6715 1
    6989     8550     8551 1
    6990     8469     8470 1
    6991     7281     7282 1
    6992     8793     8794 1
    6993     4202     4203 1
    6994     6633     6634 1
    6995     9117     9118 1
    6996     4205     4206 1
    6997     8955     8956 1
    6998     1399     1400 1
    6999     1510     1511 1
    7000     7914     7915 1
    7001     1098     1097 1
    7002     5160     5161 1
    7003     4083     4084 1
    7004     5835     5836 1
    7005     7833     7834 1
    7006     2290     2291 1
    7007     7671     7672 1
    7008     7692     7694 1
    7009     5079     5080 1
    7010     1365     1367 1
    7011     4461     4462 1
    7012     1032     1031 1
    7013     7593     7594 1
    7014     9348     9349 1
    7015     9159     9160 1
    7016     7242     7243 1
    7017     1217     1218 1
    7018     7413     7415 1
    7019    10497    10498 1
    7020      521      522 1
    7021    10578    10579 1
    7022     2299     2300 1
    7023     2157     2158 1
    7024     4029     4018 1
    7025     4131     4132 1
    7026     4020     4021 1
    7027     3605     3606 1
    7028     5289     5291 1
    7029      950      951 1
    7030      728      729 1
    7031      153      154 1
    7032     1453     1454 1
    7033     7962     7964 1
    7034     1741     1730 1
    7035    10188    10189 1
    7036    11673    11674 1
    7037     4362     4363 1
    7038     1022     1023 1
    7039    10350    10351 1
    7040    11037    11039 1
    7041     3865     3867 1
    7042     2569     2571 1
    7043     2785     2787 1
    7044     2839     2841 1
    7045     2515     2517 1
    7046     2238     2240 1
    7047     2670     2672 1
    7048      467      468 1
    7049      899      900 1
    7050     4620     4621 1
    7051    11679    11681 1
    7052      738      740 1
    7053       39       40 1
    7054     1833     1834 1
    7055    11430    11432 1
    7056    11187    11189 1
    7057     4434     4436 1
    7058       30       31 1
    7059      535      536 1
    7060     1990     1991 1
    7061      174      175 1
    7062     3566     3565 1
    7063     8250     8252 1
    7064     6009     6011 1
    7065     5334     5336 1
    7066     6171     6173 1
    7067     6414     6416 1
    7068     3454     3455 1
    7069     2501     2504 1
    7070     1182     1183 1
    7071     1989     1990 1
    7072     1503     1504 1
    7073      960      961 1
    7074      203      204 1
    7075       29       30 1
    7076     3851     3854 1
    7077     3268     3267 1
    7078     8151     8152 1
    7079     6153     6154 1
    7080     6315     6316 1
    7081     6234     6235 1
    7082     5316     5317 1
    7083     7989     7990 1
    7084     8070     8071 1
    7085     8466     8467 1
    7086     6711     6712 1
    7087     5712     5713 1
    7088     4956     4957 1
    7089     7629     7630 1
    7090     8790     8791 1
    7091     8952     8953 1
    7092     4731     4733 1
    7093     3670     3671 1
    7094     5874     5875 1
    7095      575      574 1
    7096     1912     1913 1
    7097     3794     3795 1
    7098     4584     4585 1
    7099     4464     4465 1
    7100    11667    11668 1
    7101    10425    10426 1
    7102    10587    10588 1
    7103      117      116 1
    7104     4740     4742 1
    7105     4659     4661 1
    7106     1856     1857 1
    7107      656      659 1
    7108     2073     2074 1
    7109     9108     9110 1
    7110     7272     7274 1
    7111     7110     7112 1
    7112     7029     7031 1
    7113      693      694 1
    7114     1194     1195 1
    7115     3868     3869 1
    7116     3220     3221 1
    7117     1142     1145 1
    7118     6636     6637 1
    7119     5637     5638 1
    7120     8553     8554 1
    7121     4881     4882 1
    7122     7716     7717 1
    7123     2024     2025 1
    7124     6537     6539 1
    7125     6456     6458 1
    7126     6375     6377 1
    7127     8616     8618 1
    7128      198      199 1
    7129      954      956 1
    7130     8676     8677 1
    7131     4322     4311 1
    7132     6903     6904 1
    7133     7740     7741 1
    7134     5823     5824 1
    7135     5067     5068 1
    7136      185      186 1
    7137     3254     3253 1
    7138     3143     3142 1
    7139     7536     7537 1
    7140     5457     5458 1
    7141     7806     7807 1
    7142     4253     4242 1
    7143     9453     9454 1
    7144     9291     9292 1
    7145     4971     4972 1
    7146     4485     4486 1
    7147     9099     9100 1
    7148     6264     6265 1
    7149     7263     7264 1
    7150     6681     6683 1
    7151     8760     8762 1
    7152     8598     8600 1
    7153     4203     4204 1
    7154     2784     2783 1
    7155     3557     3558 1
    7156     9390     9391 1
    7157     3476     3474 1
    7158      682      661 1
    7159     1273     1274 1
    7160      730      731 1
    7161     1618     1619 1
    7162     1848     1849 1
    7163    11391    11392 1
    7164    11148    11149 1
    7165     9555     9556 1
    7166    11472    11473 1
    7167     2391     2392 1
    7168     3281     3282 1
    7169     5931     5933 1
    7170     5013     5015 1
    7171     3677     3676 1
    7172     4932     4934 1
    7173     5688     5690 1
    7174     5526     5528 1
    7175     5769     5771 1
    7176     7524     7526 1
    7177     7767     7769 1
    7178     2017     2018 1
    7179    11061    11062 1
    7180     5655     5657 1
    7181    10680    10681 1
    7182     1857     1858 1
    7183     1357     1358 1
    7184     2220     2221 1
    7185      219      220 1
    7186     7659     7661 1
    7187     9774     9776 1
    7188    11934    11936 1
    7189     7872     7874 1
    7190     5469     5471 1
    7191     7548     7550 1
    7192     5199     5201 1
    7193     5793     5795 1
    7194     9465     9467 1
    7195     6117     6119 1
    7196       15       17 1
    7197     9303     9305 1
    7198     5037     5039 1
    7199     6504     6506 1
    7200     1796     1785 1
    7201     1500     1501 1
    7202     8964     8965 1
    7203     1389     1390 1
    7204      426      427 1
    7205     4024     4025 1
    7206     8124     8125 1
    7207     5964     5965 1
    7208     8205     8206 1
    7209     8043     8044 1
    7210     5370     5371 1
    7211     2806     2807 1
    7212     3330     3331 1
    7213     2580     2581 1
    7214     3879     3880 1
    7215     4217     4218 1
    7216     3654     3655 1
    7217     4176     4177 1
    7218     3884     3885 1
    7219     3970     3971 1
    7220     2819     2818 1
    7221     2243     2244 1
    7222     3755     3756 1
    7223     6813     6814 1
    7224     5583     5585 1
    7225     7014     7016 1
    7226     7176     7178 1
    7227     7338     7340 1
    7228     8850     8852 1
    7229     5502     5504 1
    7230     8931     8933 1
    7231     5421     5423 1
    7232     9012     9014 1
    7233     7095     7097 1
    7234     1246     1247 1
    7235     9828     9829 1
    7236     9909     9910 1
    7237    11907    11908 1
    7238     9990     9991 1
    7239      401      402 1
    7240     2033     2034 1
    7241     1685     1686 1
    7242     6999     7000 1
    7243      222      221 1
    7244     3503     3502 1
    7245     2735     2734 1
    7246      201      202 1
    7247     1315     1316 1
    7248     2673     2674 1
    7249     3622     3623 1
    7250     3847     3848 1
    7251     4671     4673 1
    7252     3736     3737 1
    7253     2395     2396 1
    7254     7218     7219 1
    7255     7623     7624 1
    7256     4950     4951 1
    7257     5706     5707 1
    7258     5868     5869 1
    7259     7059     7061 1
    7260     8814     8816 1
    7261     5979     5981 1
    7262     7215     7216 1
    7263     8652     8654 1
    7264     7896     7898 1
    7265     5223     5225 1
    7266     8970     8971 1
    7267     5385     5387 1
    7268     1596     1597 1
    7269     2143     2144 1
    7270     1580     1579 1
    7271     4021     4022 1
    7272     2720     2721 1
    7273     4455     4456 1
    7274     4089     4090 1
    7275     8793     8795 1
    7276     6633     6635 1
    7277     9117     9119 1
    7278     6714     6716 1
    7279     1811     1800 1
    7280      293      294 1
    7281     1166     1167 1
    7282     1055     1056 1
    7283     8550     8552 1
    7284     8469     8471 1
    7285      404      405 1
    7286    11943    11945 1
    7287    10401    10403 1
    7288    10428    10430 1
    7289    10239    10241 1
    7290    10590    10592 1
    7291    11238    11240 1
    7292     3803     3804 1
    7293     7407     7408 1
    7294     2816     2817 1
    7295    11007    11008 1
    7296      607      608 1
    7297     2454     2456 1
    7298     3102     3104 1
    7299     2178     2180 1
    7300     9159     9161 1
    7301     7593     7595 1
    7302     9348     9350 1
    7303     7242     7244 1
    7304     5121     5123 1
    7305     8775     8777 1
    7306     7101     7103 1
    7307     7020     7022 1
    7308     6696     6698 1
    7309    10815    10817 1
    7310    11328    11330 1
    7311    11058    11060 1
    7312    10977    10979 1
    7313     4827     4828 1
    7314      466      467 1
    7315     2000     2001 1
    7316     2308     2309 1
    7317     3058     3059 1
    7318     2126     2125 1
    7319     2632     2633 1
    7320      751      752 1
    7321     1288     1289 1
    7322     2836     2837 1
    7323     3429     3430 1
    7324     9909     9911 1
    7325     2642     2621 1
    7326       94       95 1
    7327       97       98 1
    7328     1400     1401 1
    7329     1064     1065 1
    7330     3912     3913 1
    7331     3346     3347 1
    7332     3594     3595 1
    7333      527      528 1
    7334     1508     1509 1
    7335     1511     1512 1
    7336      786      785 1
    7337     1266     1267 1
    7338      194      195 1
    7339      504      505 1
    7340      932      933 1
    7341      139      140 1
    7342     4123     4124 1
    7343     4758     4760 1
    7344     2303     2304 1
    7345      688      687 1
    7346     3925     3926 1
    7347     4265     4266 1
    7348    10992    10993 1
    7349    11073    11074 1
    7350    10911    10912 1
    7351       35       36 1
    7352      999     1000 1
    7353      348      349 1
    7354     1107     1108 1
    7355      885      886 1
    7356     1110     1111 1
    7357      243      244 1
    7358     2899     2900 1
    7359     3448     3449 1
    7360     3871     3872 1
    7361     4274     4275 1
    7362     7824     7825 1
    7363     4989     4990 1
    7364     6285     6286 1
    7365     3507     3508 1
    7366    11676    11678 1
    7367    10758    10760 1
    7368     8235     8237 1
    7369     7695     7697 1
    7370     3130     3132 1
    7371     3454     3456 1
    7372     8151     8153 1
    7373     6315     6317 1
    7374     5316     5318 1
    7375     7989     7991 1
    7376      599      598 1
    7377     6234     6236 1
    7378     6153     6155 1
    7379     8070     8072 1
    7380    11403    11405 1
    7381     1775     1774 1
    7382     9294     9296 1
    7383     4584     4586 1
    7384     4464     4466 1
    7385      635      636 1
    7386      520      521 1
    7387     2242     2243 1
    7388      524      525 1
    7389      323      324 1
    7390     3313     3314 1
    7391     3853     3854 1
    7392     1492     1493 1
    7393     7509     7510 1
    7394     4917     4918 1
    7395     9507     9508 1
    7396     4596     4598 1
    7397     5916     5917 1
    7398     5754     5755 1
    7399     5511     5512 1
    7400     4998     4999 1
    7401     7752     7753 1
    7402     5673     5674 1
    7403     1488     1489 1
    7404     2987     2990 1
    7405     9636     9638 1
    7406    11859    11861 1
    7407    10335    10336 1
    7408     4050     4051 1
    7409     3132     3133 1
    7410     4095     4096 1
    7411     6903     6905 1
    7412     2923     2924 1
    7413     2710     2711 1
    7414     2593     2594 1
    7415      506      507 1
    7416      395      396 1
    7417     1342     1343 1
    7418     7740     7742 1
    7419     1905     1906 1
    7420     5823     5825 1
    7421      367      368 1
    7422     3047     3048 1
    7423     2567     2568 1
    7424     5031     5032 1
    7425     3001     3002 1
    7426     3865     3866 1
    7427    10038    10040 1
    7428    11793    11795 1
    7429    10875    10877 1
    7430      113      114 1
    7431    11955    11957 1
    7432     2020     2009 1
    7433    11031    11032 1
    7434     5421     5422 1
    7435     8667     8669 1
    7436       20       19 1
    7437     1822     1821 1
    7438     1293     1292 1
    7439     3935     3934 1
    7440      313      314 1
    7441     1651     1652 1
    7442     2745     2744 1
    7443     3702     3703 1
    7444     4267     4256 1
    7445     8181     8182 1
    7446     4329     4330 1
    7447     2473     2472 1
    7448     4746     4748 1
    7449     4665     4667 1
    7450     2430     2431 1
    7451     3840     3841 1
    7452     2541     2542 1
    7453     3189     3190 1
    7454     8799     8800 1
    7455     8475     8476 1
    7456     8556     8557 1
    7457     6720     6721 1
    7458    11352    11353 1
    7459    10164    10165 1
    7460    10515    10516 1
    7461    11163    11164 1
    7462     8961     8962 1
    7463     2057     2058 1
    7464     9597     9598 1
    7465      337      338 1
    7466     1887     1888 1
    7467    10002    10003 1
    7468     2045     2046 1
    7469     1968     1969 1
    7470     1156     1157 1
    7471     1702     1703 1
    7472     1489     1490 1
    7473      943      944 1
    7474     2333     2334 1
    7475     3413     3414 1
    7476     9648     9649 1
    7477     1761     1762 1
    7478     2164     2165 1
    7479     2701     2702 1
    7480     8031     8032 1
    7481     5952     5953 1
    7482     8193     8194 1
    7483     5358     5359 1
    7484     8112     8113 1
    7485      761      762 1
    7486     1533     1534 1
    7487      237      238 1
    7488     1644     1645 1
    7489     4168     4157 1
    7490     2775     2776 1
    7491      902      903 1
    7492     2451     2452 1
    7493      157      158 1
    7494     5610     5612 1
    7495     7608     7610 1
    7496     7365     7367 1
    7497     9363     9365 1
    7498     1835     1836 1
    7499     6159     6160 1
    7500     8454     8456 1
    7501     6618     6620 1
    7502     8535     8537 1
    7503     8940     8942 1
    7504     6699     6701 1
    7505     7323     7324 1
    7506     6780     6782 1
    7507     8778     8780 1
    7508     9515     9513 1
    7509     5004     5005 1
    7510     5964     5966 1
    7511     8124     8126 1
    7512     8205     8207 1
    7513     7065     7066 1
    7514     8820     8821 1
    7515     8658     8659 1
    7516     5229     5230 1
    7517     8043     8045 1
    7518     5370     5372 1
    7519     5391     5392 1
    7520     7902     7903 1
    7521     5985     5986 1
    7522    11370    11372 1
    7523     1429     1430 1
    7524    11367    11369 1
    7525    10638    10640 1
    7526     3196     3197 1
    7527     4316     4317 1
    7528     3085     3086 1
    7529     3958     3957 1
    7530     5619     5620 1
    7531     5133     5134 1
    7532     5889     5890 1
    7533     6051     6052 1
    7534     7698     7699 1
    7535     8613     8614 1
    7536     4413     4414 1
    7537     8856     8857 1
    7538     4653     4654 1
    7539     6840     6841 1
    7540     6921     6922 1
    7541     6426     6427 1
    7542     4734     4735 1
    7543     6759     6760 1
    7544     5082     5083 1
    7545     7836     7837 1
    7546     3476     3473 1
    7547     7917     7918 1
    7548     5163     5164 1
    7549     7674     7675 1
    7550     5838     5839 1
    7551     2160     2149 1
    7552     2708     2709 1
    7553     2603     2604 1
    7554     2714     2715 1
    7555     2385     2384 1
    7556    11337    11339 1
    7557    10122    10124 1
    7558    11877    11879 1
    7559     6995     6993 1
    7560    11796    11798 1
    7561     8912     8910 1
    7562    10041    10043 1
    7563     9960     9962 1
    7564     3838     3837 1
    7565    11958    11960 1
    7566     2675     2676 1
    7567    10953    10954 1
    7568     4365     4366 1
    7569     7491     7493 1
    7570     7215     7217 1
    7571     8970     8972 1
    7572     1464     1465 1
    7573     3238     3240 1
    7574     3778     3780 1
    7575    11544    11546 1
    7576    10788    10790 1
    7577    10626    10628 1
    7578    10464    10466 1
    7579     3129     3128 1
    7580     4042     4041 1
    7581      110      112 1
    7582     9879     9881 1
    7583       26       27 1
    7584      537      538 1
    7585      815      816 1
    7586     5175     5177 1
    7587     1986     1987 1
    7588      675      676 1
    7589     1159     1158 1
    7590     2903     2904 1
    7591     1452     1453 1
    7592     3437     3438 1
    7593     4049     4050 1
    7594     2666     2667 1
    7595     2363     2364 1
    7596     3770     3771 1
    7597      588      587 1
    7598     7314     7315 1
    7599     5289     5290 1
    7600     4225     4226 1
    7601     5478     5479 1
    7602     7476     7477 1
    7603     9474     9475 1
    7604     7881     7882 1
    7605     6045     6046 1
    7606     9312     9313 1
    7607     7557     7558 1
    7608     6468     6469 1
    7609      109      112 1
    7610     2355     2356 1
    7611     3015     3016 1
    7612     2804     2783 1
    7613     4231     4232 1
    7614     9435     9436 1
    7615     7167     7168 1
    7616     7194     7195 1
    7617     7005     7006 1
    7618     9273     9274 1
    7619     5439     5440 1
    7620     8922     8923 1
    7621     4359     4361 1
    7622     2222     2223 1
    7623     4713     4715 1
    7624     9189     9191 1
    7625     7164     7166 1
    7626     7002     7004 1
    7627     9432     9434 1
    7628     7434     7436 1
    7629     8838     8840 1
    7630     3340     3341 1
    7631     3652     3653 1
    7632     2356     2357 1
    7633     2578     2579 1
    7634     3112     3113 1
    7635      443      444 1
    7636     2286     2288 1
    7637    11340    11341 1
    7638      115      116 1
    7639       69       70 1
    7640     1394     1393 1
    7641     7284     7285 1
    7642     6852     6853 1
    7643     9120     9121 1
    7644     3723     3724 1
    7645     6933     6934 1
    7646     7041     7042 1
    7647     6771     6772 1
    7648    10083    10085 1
    7649    12000    12002 1
    7650    10461    10463 1
    7651    11838    11840 1
    7652    10623    10625 1
    7653    10947    10949 1
    7654    10785    10787 1
    7655     7452     7454 1
    7656     5454     5456 1
    7657     9450     9452 1
    7658     9288     9290 1
    7659     6372     6374 1
    7660     3330     3329 1
    7661     4126     4125 1
    7662     6012     6014 1
    7663     3815     3814 1
    7664     3970     3969 1
    7665     6255     6256 1
    7666      275      274 1
    7667     5256     5257 1
    7668     6093     6094 1
    7669     8010     8011 1
    7670     8091     8092 1
    7671     2644     2645 1
    7672     2892     2893 1
    7673     3097     3098 1
    7674     7911     7912 1
    7675     3748     3749 1
    7676     4326     4327 1
    7677     4010     4011 1
    7678      291      292 1
    7679     3426     3427 1
    7680     4071     4072 1
    7681     1446     1445 1
    7682    11940    11942 1
    7683     2513     2514 1
    7684     1372     1373 1
    7685      186      187 1
    7686      298      299 1
    7687    10473    10474 1
    7688    11040    11041 1
    7689    10797    10798 1
    7690    10635    10636 1
    7691     4063     4064 1
    7692     2922     2923 1
    7693     3360     3361 1
    7694     2709     2710 1
    7695     2598     2599 1
    7696     3069     3070 1
    7697     2529     2530 1
    7698     3495     3496 1
    7699     2958     2959 1
    7700     3384     3385 1
    7701     2841     2842 1
    7702     3066     3067 1
    7703    11655    11656 1
    7704     9738     9739 1
    7705    10170    10171 1
    7706    10494    10495 1
    7707    10008    10009 1
    7708    11493    11494 1
    7709    11169    11170 1
    7710     9576     9577 1
    7711     2407     2409 1
    7712     9969     9970 1
    7713      112      113 1
    7714     5460     5461 1
    7715     4548     4549 1
    7716     5940     5942 1
    7717     4428     4429 1
    7718     4494     4495 1
    7719      651      652 1
    7720     1299     1300 1
    7721     3318     3321 1
    7722     1191     1192 1
    7723     1006     1007 1
    7724     1135     1138 1
    7725     4916     4914 1
    7726     1622     1624 1
    7727    11097    11099 1
    7728    11016    11018 1
    7729     9033     9035 1
    7730     7440     7442 1
    7731     9438     9440 1
    7732     9195     9197 1
    7733     5442     5444 1
    7734     9276     9278 1
    7735    11556    11558 1
    7736     7197     7199 1
    7737     1876     1877 1
    7738     9027     9029 1
    7739     1668     1669 1
    7740    10056    10057 1
    7741    11973    11974 1
    7742    10218    10219 1
    7743    10650    10651 1
    7744     7818     7819 1
    7745      170      172 1
    7746     4983     4984 1
    7747     6279     6280 1
    7748     2315     2316 1
    7749     2497     2498 1
    7750     3466     3467 1
    7751      996      997 1
    7752     1647     1648 1
    7753     2228     2229 1
    7754      774      775 1
    7755      246      247 1
    7756     1888     1889 1
    7757      354      355 1
    7758     2070     2071 1
    7759     1661     1662 1
    7760     5313     5315 1
    7761     6231     6233 1
    7762     8148     8150 1
    7763     7986     7988 1
    7764    10017    10018 1
    7765    10179    10180 1
    7766    10503    10504 1
    7767     6519     6520 1
    7768     1461     1462 1
    7769     8340     8341 1
    7770      898      877 1
    7771     1797     1786 1
    7772     5922     5923 1
    7773     8799     8801 1
    7774     8475     8477 1
    7775     8556     8558 1
    7776     6720     6722 1
    7777     8961     8963 1
    7778     6801     6803 1
    7779     6639     6641 1
    7780      646      647 1
    7781    11802    11804 1
    7782    10263    10265 1
    7783     2440     2441 1
    7784     3625     3626 1
    7785     2863     2864 1
    7786      412      413 1
    7787     3514     3515 1
    7788     2830     2831 1
    7789     2173     2172 1
    7790     8892     8893 1
    7791     6867     6868 1
    7792     8865     8866 1
    7793     8649     8650 1
    7794     6948     6949 1
    7795     5952     5954 1
    7796     8193     8195 1
    7797     5358     5360 1
    7798     8565     8566 1
    7799     7161     7162 1
    7800     5568     5569 1
    7801     4057     4058 1
    7802     8916     8917 1
    7803     8031     8033 1
    7804     5406     5407 1
    7805     6324     6325 1
    7806     5244     5245 1
    7807     6486     6487 1
    7808     2874     2875 1
    7809     3198     3199 1
    7810     3624     3625 1
    7811     2538     2539 1
    7812     2661     2662 1
    7813     3411     3412 1
    7814      804      805 1
    7815     2582     2583 1
    7816      582      583 1
    7817     4216     4217 1
    7818     4527     4528 1
    7819      926      927 1
    7820      386      387 1
    7821     1358     1359 1
    7822     6513     6514 1
    7823     3842     3843 1
    7824     2756     2757 1
    7825     4144     4145 1
    7826     3194     3195 1
    7827     5229     5231 1
    7828     8658     8660 1
    7829     9852     9854 1
    7830    10851    10853 1
    7831     8820     8822 1
    7832     2182     2183 1
    7833     1231     1232 1
    7834     4064     4065 1
    7835     5985     5987 1
    7836     4172     4173 1
    7837     1591     1592 1
    7838    11931    11933 1
    7839    11592    11593 1
    7840    10026    10027 1
    7841      439      440 1
    7842    10404    10405 1
    7843    10431    10432 1
    7844    11754    11755 1
    7845    11781    11782 1
    7846     1411     1412 1
    7847     2891     2892 1
    7848    10593    10594 1
    7849    10713    10715 1
    7850     9714     9716 1
    7851     2005     2006 1
    7852     9876     9878 1
    7853      143      144 1
    7854     3534     3536 1
    7855     7917     7919 1
    7856     5082     5084 1
    7857     7836     7838 1
    7858     5838     5840 1
    7859     7674     7676 1
    7860     5163     5165 1
    7861     8013     8014 1
    7862     6912     6914 1
    7863     5832     5834 1
    7864     6075     6077 1
    7865     4249     4250 1
    7866    10410    10412 1
    7867     9519     9521 1
    7868    11598    11600 1
    7869    11760    11762 1
    7870     3156     3157 1
    7871    10248    10250 1
    7872     9681     9683 1
    7873     4506     4508 1
    7874    10674    10676 1
    7875    10944    10946 1
    7876     3280     3281 1
    7877    10863    10865 1
    7878      552      553 1
    7879      994      995 1
    7880     8493     8495 1
    7881     6576     6578 1
    7882     6738     6740 1
    7883     7884     7885 1
    7884     9207     9208 1
    7885     6966     6967 1
    7886     5211     5212 1
    7887     5589     5590 1
    7888     8883     8884 1
    7889     8289     8290 1
    7890     5130     5131 1
    7891     7344     7345 1
    7892     3685     3686 1
    7893     3652     3651 1
    7894     3264     3266 1
    7895     9235     9234 1
    7896      500      501 1
    7897     1412     1413 1
    7898       68       69 1
    7899     3242     3243 1
    7900     2492     2493 1
    7901      505      506 1
    7902     4836     4838 1
    7903    11586    11587 1
    7904    10020    10021 1
    7905    11748    11749 1
    7906    11775    11776 1
    7907     9669     9670 1
    7908    11937    11938 1
    7909     7221     7222 1
    7910     8976     8977 1
    7911     1264     1265 1
    7912     1425     1426 1
    7913      780      781 1
    7914     1002     1003 1
    7915      453      454 1
    7916      151      152 1
    7917     7353     7354 1
    7918     6705     6707 1
    7919     8541     8543 1
    7920     8784     8786 1
    7921     8460     8462 1
    7922     6624     6626 1
    7923     8946     8948 1
    7924     2572     2573 1
    7925     6786     6788 1
    7926     2683     2684 1
    7927      761      760 1
    7928     1517     1516 1
    7929     9786     9788 1
    7930    11703    11705 1
    7931     9813     9815 1
    7932    11892    11894 1
    7933     9867     9869 1
    7934     9894     9896 1
    7935     9624     9626 1
    7936     9975     9977 1
    7937     9705     9707 1
    7938     5127     5129 1
    7939     9312     9314 1
    7940     6126     6128 1
    7941     5499     5500 1
    7942     8172     8173 1
    7943     9474     9476 1
    7944     5046     5048 1
    7945     5208     5210 1
    7946     7881     7883 1
    7947     7476     7478 1
    7948     8334     8335 1
    7949     9333     9334 1
    7950     7416     7417 1
    7951     3914     3915 1
    7952     1396     1397 1
    7953      559      560 1
    7954      138      139 1
    7955      451      452 1
    7956      650      652 1
    7957     7944     7946 1
    7958     5271     5273 1
    7959    10422    10424 1
    7960     2536     2537 1
    7961     2025     2026 1
    7962    11205    11207 1
    7963      628      629 1
    7964     1384     1385 1
    7965     5001     5002 1
    7966     1244     1246 1
    7967     9675     9676 1
    7968     5022     5023 1
    7969     5778     5779 1
    7970     7776     7777 1
    7971      723      724 1
    7972     4007     4008 1
    7973     7167     7169 1
    7974     9435     9437 1
    7975     7194     7196 1
    7976     7005     7007 1
    7977     9273     9275 1
    7978     5439     5441 1
    7979     8922     8924 1
    7980     2681     2682 1
    7981     3554     3555 1
    7982     1734     1735 1
    7983     3939     3940 1
    7984     1277     1278 1
    7985    10281    10282 1
    7986    12009    12010 1
    7987     2898     2899 1
    7988     3660     3661 1
    7989     8946     8947 1
    7990    11847    11848 1
    7991      845      846 1
    7992    10092    10093 1
    7993     4340     4341 1
    7994    11715    11716 1
    7995    10149    10150 1
    7996    10068    10069 1
    7997    11985    11986 1
    7998     9717     9718 1
    7999     2931     2932 1
    8000     2712     2713 1
    8001    10230    10231 1
    8002     9798     9799 1
    8003     9879     9880 1
    8004     3135     3136 1
    8005     3503     3504 1
    8006     2417     2418 1
    8007     3243     3244 1
    8008     6255     6257 1
    8009     5256     5258 1
    8010     6093     6095 1
    8011     8010     8012 1
    8012      512      513 1
    8013     1475     1476 1
    8014     6509     6507 1
    8015     9398     9396 1
    8016     8426     8424 1
    8017     1274     1275 1
    8018     7481     7479 1
    8019     8102     8100 1
    8020     6050     6048 1
    8021     2869     2868 1
    8022    11967    11969 1
    8023    10212    10214 1
    8024     4248     4249 1
    8025    10050    10052 1
    8026     4132     4133 1
    8027     3381     3382 1
    8028     3180     3181 1
    8029    10644    10646 1
    8030     3672     3673 1
    8031     1903     1904 1
    8032     2184     2185 1
    8033      266      267 1
    8034     1340     1341 1
    8035     3315     3316 1
    8036     9999    10001 1
    8037      824      823 1
    8038    11004    11005 1
    8039    11085    11086 1
    8040    11436    11437 1
    8041    11193    11194 1
    8042    10923    10924 1
    8043      976      977 1
    8044     7095     7096 1
    8045     3045     3046 1
    8046       58       59 1
    8047      358      359 1
    8048     1814     1815 1
    8049      634      635 1
    8050      758      760 1
    8051      855      856 1
    8052      966      967 1
    8053     3910     3911 1
    8054     2776     2777 1
    8055     1270     1269 1
    8056     2074     2075 1
    8057     3881     3882 1
    8058      366      365 1
    8059     3584     3585 1
    8060      176      177 1
    8061     3926     3927 1
    8062       13       14 1
    8063     1250     1252 1
    8064     3400     3402 1
    8065     2772     2774 1
    8066     9084     9085 1
    8067     5601     5602 1
    8068     6347     6345 1
    8069     9246     9247 1
    8070     7356     7357 1
    8071     3091     3090 1
    8072     2061     2062 1
    8073      137      138 1
    8074     1638     1639 1
    8075      450      451 1
    8076     4195     4196 1
    8077     3531     3532 1
    8078     6744     6746 1
    8079     6582     6584 1
    8080     8499     8501 1
    8081      652      653 1
    8082     4890     4892 1
    8083     7563     7565 1
    8084     9480     9482 1
    8085     8103     8105 1
    8086     5646     5648 1
    8087     7614     7616 1
    8088     8532     8534 1
    8089     5616     5618 1
    8090     6615     6617 1
    8091     8451     8453 1
    8092     3018     3017 1
    8093     1084     1082 1
    8094     5760     5761 1
    8095     1578     1579 1
    8096     1114     1115 1
    8097     8253     8254 1
    8098     6012     6013 1
    8099     4539     4540 1
    8100     8496     8497 1
    8101     6417     6418 1
    8102     5337     5338 1
    8103     6741     6742 1
    8104     6579     6580 1
    8105     6174     6175 1
    8106    11640    11642 1
    8107     9642     9644 1
    8108    11478    11480 1
    8109     9723     9725 1
    8110      457      458 1
    8111    11397    11399 1
    8112    11154    11156 1
    8113     9561     9563 1
    8114    11559    11561 1
    8115    11235    11237 1
    8116      428      429 1
    8117      641      642 1
    8118     9102     9103 1
    8119     7266     7267 1
    8120     7023     7024 1
    8121     2506     2507 1
    8122     7104     7105 1
    8123     7749     7750 1
    8124     7542     7543 1
    8125     3533     3534 1
    8126     7812     7813 1
    8127     9459     9460 1
    8128     4977     4978 1
    8129     5463     5464 1
    8130     9297     9298 1
    8131     4341     4342 1
    8132     8538     8539 1
    8133     6621     6622 1
    8134     8457     8458 1
    8135     8781     8782 1
    8136     8943     8944 1
    8137     6702     6703 1
    8138     6783     6784 1
    8139     6948     6950 1
    8140     3834     3835 1
    8141     3621     3622 1
    8142     3633     3634 1
    8143     9560     9558 1
    8144    11477    11475 1
    8145    11103    11104 1
    8146    10563    10564 1
    8147    11265    11266 1
    8148     2063     2052 1
    8149      818      819 1
    8150    11388    11389 1
    8151    10767    10768 1
    8152    11145    11146 1
    8153    10848    10849 1
    8154    11469    11470 1
    8155     9552     9553 1
    8156     3275     3276 1
    8157     3967     3968 1
    8158      827      828 1
    8159     1975     1976 1
    8160     1021     1022 1
    8161     9282     9283 1
    8162      869      870 1
    8163      163      166 1
    8164    11727    11728 1
    8165    11808    11809 1
    8166     1303     1304 1
    8167    11685    11687 1
    8168     3642     3644 1
    8169     7161     7163 1
    8170     5568     5570 1
    8171     8916     8918 1
    8172     5406     5408 1
    8173     6324     6326 1
    8174     5244     5246 1
    8175     8565     8567 1
    8176     6486     6488 1
    8177     6999     7001 1
    8178     7323     7325 1
    8179     1311     1312 1
    8180     4470     4471 1
    8181    10491    10493 1
    8182    10572    10574 1
    8183     2003     2004 1
    8184     1129     1130 1
    8185    11133    11135 1
    8186     3283     3284 1
    8187    11457    11459 1
    8188     9540     9542 1
    8189     6987     6988 1
    8190      529      530 1
    8191     1820     1821 1
    8192     1291     1292 1
    8193     1066     1067 1
    8194       18       19 1
    8195     3808     3809 1
    8196      974      976 1
    8197     4272     4273 1
    8198    10773    10775 1
    8199     5604     5606 1
    8200     7602     7604 1
    8201     7359     7361 1
    8202     9357     9359 1
    8203     1065     1066 1
    8204      642      643 1
    8205     1716     1717 1
    8206      408      409 1
    8207     1482     1483 1
    8208     3923     3922 1
    8209     5376     5377 1
    8210     4207     4208 1
    8211     3005     3006 1
    8212     1548     1549 1
    8213     3551     3552 1
    8214     1449     1450 1
    8215     3446     3447 1
    8216     2750     2751 1
    8217     6666     6667 1
    8218     7827     7828 1
    8219     4992     4993 1
    8220     8745     8746 1
    8221     6603     6604 1
    8222     5901     5902 1
    8223     6441     6442 1
    8224     5145     5146 1
    8225     8358     8359 1
    8226     8520     8521 1
    8227     6063     6064 1
    8228     3237     3238 1
    8229     2190     2191 1
    8230     4009     4010 1
    8231     3051     3052 1
    8232    10803    10804 1
    8233    11046    11047 1
    8234    10965    10966 1
    8235     3586     3585 1
    8236     3901     3902 1
    8237     1619     1620 1
    8238     7967     7965 1
    8239     4845     4846 1
    8240     2133     2122 1
    8241     2017     2016 1
    8242     2029     2030 1
    8243     6489     6490 1
    8244     9135     9137 1
    8245     8217     8219 1
    8246     7380     7382 1
    8247     8379     8381 1
    8248     4051     4052 1
    8249     2248     2249 1
    8250     1250     1253 1
    8251     3163     3165 1
    8252     1363     1364 1
    8253     7905     7906 1
    8254     8445     8446 1
    8255     3183     3184 1
    8256     5394     5395 1
    8257     5232     5233 1
    8258     5988     5989 1
    8259     6528     6529 1
    8260    10677    10679 1
    8261    11757    11759 1
    8262     9516     9518 1
    8263    11595    11597 1
    8264    10191    10193 1
    8265      381      382 1
    8266    11190    11192 1
    8267     9678     9680 1
    8268    10353    10355 1
    8269     2914     2916 1
    8270     1412     1414 1
    8271     2524     2525 1
    8272     3286     3287 1
    8273     3598     3599 1
    8274     4291     4292 1
    8275     2860     2861 1
    8276     2989     2990 1
    8277      283      282 1
    8278     6240     6241 1
    8279     6267     6268 1
    8280     5241     5242 1
    8281     6348     6349 1
    8282     7995     7996 1
    8283     6078     6079 1
    8284     8076     8077 1
    8285     8265     8266 1
    8286     6186     6187 1
    8287     7221     7223 1
    8288     8976     8978 1
    8289     3664     3663 1
    8290      945      946 1
    8291       71       69 1
    8292     3186     3187 1
    8293      471      472 1
    8294     3440     3441 1
    8295     3530     3531 1
    8296      995      996 1
    8297     4788     4790 1
    8298     2696     2697 1
    8299    11742    11743 1
    8300    10284    10285 1
    8301    10203    10204 1
    8302    11823    11824 1
    8303    10365    10366 1
    8304     2531     2532 1
    8305     3500     3501 1
    8306     3494     3495 1
    8307     4304     4305 1
    8308      282      281 1
    8309     2602     2603 1
    8310     8172     8174 1
    8311     3889     3890 1
    8312     5499     5501 1
    8313     8334     8336 1
    8314     9333     9335 1
    8315     7416     7418 1
    8316     1127     1128 1
    8317     3965     3966 1
    8318     3612     3613 1
    8319     3720     3721 1
    8320     2628     2629 1
    8321     1562     1563 1
    8322      683      684 1
    8323     2351     2352 1
    8324     1346     1347 1
    8325     2850     2851 1
    8326     3501     3502 1
    8327      800      801 1
    8328     6210     6211 1
    8329    10140    10141 1
    8330    10707    10708 1
    8331    10302    10303 1
    8332     1843     1844 1
    8333     9870     9871 1
    8334     4079     4078 1
    8335    11220    11221 1
    8336     9708     9709 1
    8337     6027     6028 1
    8338      426      425 1
    8339        8       11 1
    8340    10845    10847 1
    8341     9846     9848 1
    8342    11925    11927 1
    8343     6438     6440 1
    8344     3168     3167 1
    8345    11583    11585 1
    8346     9747     9749 1
    8347     8574     8576 1
    8348     5253     5255 1
    8349     6252     6254 1
    8350     8169     8171 1
    8351     8412     8414 1
    8352    11502    11504 1
    8353     8007     8009 1
    8354     6090     6092 1
    8355     8331     8333 1
    8356     8016     8018 1
    8357      633      634 1
    8358     9423     9424 1
    8359      858      859 1
    8360     9636     9637 1
    8361      952      931 1
    8362     4617     4618 1
    8363      829      830 1
    8364     1606     1607 1
    8365      616      617 1
    8366     1609     1610 1
    8367      403      404 1
    8368     1894     1883 1
    8369     3616     3618 1
    8370     1139     1140 1
    8371     5382     5384 1
    8372     4237     4238 1
    8373     2882     2879 1
    8374     6429     6430 1
    8375      931      932 1
    8376      597      598 1
    8377      846      848 1
    8378    10047    10049 1
    8379    10209    10211 1
    8380     3128     3107 1
    8381    11964    11966 1
    8382     4281     4270 1
    8383     9855     9857 1
    8384     9936     9938 1
    8385     2767     2768 1
    8386     3079     3080 1
    8387     3614     3593 1
    8388     1168     1169 1
    8389     1494     1495 1
    8390     3517     3518 1
    8391     3694     3695 1
    8392     4094     4095 1
    8393     4923     4924 1
    8394     2669     2670 1
    8395     5517     5518 1
    8396     9081     9082 1
    8397     5679     5680 1
    8398      834      835 1
    8399     9243     9244 1
    8400     5601     5603 1
    8401     9246     9248 1
    8402     9162     9163 1
    8403     9084     9086 1
    8404     7356     7358 1
    8405     2792     2793 1
    8406     3119     3120 1
    8407     3125     3126 1
    8408     4623     4624 1
    8409     1871     1872 1
    8410     4141     4142 1
    8411    10443    10444 1
    8412    10605    10606 1
    8413     2972     2973 1
    8414     4953     4955 1
    8415     2536     2538 1
    8416     8496     8498 1
    8417     6417     6419 1
    8418     3145     3146 1
    8419     4539     4541 1
    8420     5564     5562 1
    8421    11553    11555 1
    8422      150      151 1
    8423     1450     1451 1
    8424      376      377 1
    8425     8253     8255 1
    8426    11310    11312 1
    8427     9039     9040 1
    8428      623      624 1
    8429    10806    10808 1
    8430    10698    10700 1
    8431    10968    10970 1
    8432      339      341 1
    8433     2831     2832 1
    8434     6597     6598 1
    8435     2785     2786 1
    8436     4160     4161 1
    8437     3677     3678 1
    8438    11064    11066 1
    8439    10983    10985 1
    8440    10821    10823 1
    8441    10467    10468 1
    8442    10791    10792 1
    8443    10629    10630 1
    8444      749      748 1
    8445     8781     8783 1
    8446     6621     6623 1
    8447     8457     8459 1
    8448     6702     6704 1
    8449     8538     8540 1
    8450     8943     8945 1
    8451     6783     6785 1
    8452     7722     7724 1
    8453     5751     5753 1
    8454     7506     7508 1
    8455     9504     9506 1
    8456     4968     4970 1
    8457     9948     9950 1
    8458     4079     4080 1
    8459     5670     5672 1
    8460     3372     3373 1
    8461     3179     3178 1
    8462     4751     4749 1
    8463      595      598 1
    8464     4776     4777 1
    8465     9678     9679 1
    8466       27       28 1
    8467     1987     1988 1
    8468     3452     3431 1
    8469      538      539 1
    8470     8223     8225 1
    8471     9141     9143 1
    8472      106      107 1
    8473      422      423 1
    8474     1988     1989 1
    8475       28       29 1
    8476      202      203 1
    8477     1718     1719 1
    8478     7386     7388 1
    8479     8385     8387 1
    8480     5319     5320 1
    8481     6561     6562 1
    8482     6642     6643 1
    8483     3048     3050 1
    8484     4800     4802 1
    8485     4344     4343 1
    8486     1628     1629 1
    8487      224      225 1
    8488     5091     5092 1
    8489     7845     7846 1
    8490     7926     7927 1
    8491      464      465 1
    8492     7683     7684 1
    8493       61       62 1
    8494     5172     5173 1
    8495     5847     5848 1
    8496     2101     2102 1
    8497     5265     5266 1
    8498     4701     4703 1
    8499     3668     3647 1
    8500     2852     2853 1
    8501     4809     4811 1
    8502    10722    10723 1
    8503    10884    10885 1
    8504    10641    10642 1
    8505     1571     1572 1
    8506     2158     2159 1
    8507     6057     6059 1
    8508     5574     5575 1
    8509     5412     5413 1
    8510     7329     7330 1
    8511     8571     8572 1
    8512     6330     6331 1
    8513     6492     6493 1
    8514     8409     8410 1
    8515     1320     1321 1
    8516      783      784 1
    8517      561      562 1
    8518     1853     1842 1
    8519     5193     5195 1
    8520     5220     5222 1
    8521     5787     5789 1
    8522     5409     5411 1
    8523     7326     7328 1
    8524     7866     7868 1
    8525     7893     7895 1
    8526     5976     5978 1
    8527     6516     6518 1
    8528     5571     5573 1
    8529     2692     2693 1
    8530     2691     2692 1
    8531     3766     3767 1
    8532     1631     1632 1
    8533     7032     7034 1
    8534     7770     7771 1
    8535     5691     5692 1
    8536     5934     5935 1
    8537     2535     2536 1
    8538     5016     5017 1
    8539     4935     4936 1
    8540     5772     5773 1
    8541    10488    10490 1
    8542    11028    11030 1
    8543     7527     7528 1
    8544     6588     6590 1
    8545     8505     8507 1
    8546     7827     7829 1
    8547     6666     6668 1
    8548     3061     3062 1
    8549     4992     4994 1
    8550     8745     8747 1
    8551     1218     1219 1
    8552     3592     3593 1
    8553      866      868 1
    8554     3000     3001 1
    8555       65       66 1
    8556     2752     2753 1
    8557     4683     4685 1
    8558     3646     3647 1
    8559     4779     4781 1
    8560     6213     6214 1
    8561     8130     8131 1
    8562     4524     4526 1
    8563     6294     6295 1
    8564     5295     5296 1
    8565     7968     7969 1
    8566     3156     3159 1
    8567     8049     8050 1
    8568     6132     6133 1
    8569       71       72 1
    8570     7038     7039 1
    8571     6795     6796 1
    8572     3303     3302 1
    8573     2798     2799 1
    8574     3872     3873 1
    8575     1236     1237 1
    8576     3098     3099 1
    8577      520      499 1
    8578     3750     3751 1
    8579     3858     3859 1
    8580     9027     9028 1
    8581     1731     1732 1
    8582    10455    10456 1
    8583    11994    11995 1
    8584    10779    10780 1
    8585    10077    10078 1
    8586    11832    11833 1
    8587    10617    10618 1
    8588    10941    10942 1
    8589     4273     4274 1
    8590     2119     2108 1
    8591     1061     1062 1
    8592    10686    10687 1
    8593    11226    11227 1
    8594     5550     5552 1
    8595    10095    10097 1
    8596     2202     2203 1
    8597     3138     3139 1
    8598     3351     3352 1
    8599     4236     4237 1
    8600     2388     2389 1
    8601     2376     2377 1
    8602    12024    12025 1
    8603     3184     3186 1
    8604     1367     1368 1
    8605     1478     1479 1
    8606     1672     1673 1
    8607      910      911 1
    8608     1706     1707 1
    8609     1561     1562 1
    8610      515      516 1
    8611      944      945 1
    8612      799      800 1
    8613     3962     3963 1
    8614     2304     2305 1
    8615     3828     3829 1
    8616     3492     3493 1
    8617     2805     2806 1
    8618     9768     9770 1
    8619    10146    10148 1
    8620    11523    11525 1
    8621     9930     9932 1
    8622    10308    10310 1
    8623     1570     1571 1
    8624      490      491 1
    8625     3703     3705 1
    8626     1778     1779 1
    8627    11679    11680 1
    8628     2562     2565 1
    8629     2940     2941 1
    8630     1867     1868 1
    8631      667      668 1
    8632     1069     1070 1
    8633     8436     8438 1
    8634     3160     3161 1
    8635     2090     2079 1
    8636     3506     3485 1
    8637     1152     1153 1
    8638     1701     1702 1
    8639     7191     7193 1
    8640     2754     2755 1
    8641     2547     2548 1
    8642     3732     3733 1
    8643     3738     3739 1
    8644     2882     2883 1
    8645     5154     5155 1
    8646     6990     6991 1
    8647     5910     5911 1
    8648     1304     1305 1
    8649    11055    11056 1
    8650     9069     9070 1
    8651     8907     8908 1
    8652     6072     6073 1
    8653        7        8 1
    8654     1424     1425 1
    8655     4521     4522 1
    8656     4704     4706 1
    8657     8118     8120 1
    8658     2378     2379 1
    8659     2387     2388 1
    8660     3086     3087 1
    8661     3375     3376 1
    8662     4740     4741 1
    8663     4659     4660 1
    8664     4494     4496 1
    8665     3250     3251 1
    8666     2281     2282 1
    8667     8220     8221 1
    8668     8301     8302 1
    8669     8382     8383 1
    8670     1837     1838 1
    8671      764      767 1
    8672     6066     6068 1
    8673     6822     6824 1
    8674     6636     6638 1
    8675     5637     5639 1
    8676     4881     4883 1
    8677     8553     8555 1
    8678     7716     7718 1
    8679     6798     6800 1
    8680     8091     8093 1
    8681     3811     3813 1
    8682     8073     8075 1
    8683     8802     8804 1
    8684     6480     6482 1
    8685     6750     6752 1
    8686     2226     2227 1
    8687     1006      985 1
    8688     1728     1727 1
    8689     6849     6850 1
    8690     9144     9145 1
    8691     4208     4209 1
    8692     7389     7390 1
    8693     3315     3314 1
    8694     9831     9833 1
    8695      430      431 1
    8696    10506    10508 1
    8697    11910    11912 1
    8698     2708     2707 1
    8699     2875     2876 1
    8700     2048     2037 1
    8701     4319     4320 1
    8702     1710     1711 1
    8703     1187     1188 1
    8704      290      289 1
    8705     8508     8509 1
    8706     8238     8239 1
    8707     4476     4478 1
    8708     6591     6592 1
    8709     3046     3047 1
    8710     2215     2216 1
    8711     2398     2399 1
    8712     8427     8428 1
    8713     5322     5323 1
    8714     5997     5998 1
    8715     7854     7856 1
    8716     7668     7669 1
    8717     3749     3750 1
    8718     6570     6571 1
    8719     8487     8488 1
    8720     6732     6733 1
    8721     7566     7567 1
    8722     6567     6568 1
    8723     4893     4894 1
    8724     8484     8485 1
    8725     5649     5650 1
    8726     6729     6730 1
    8727     9483     9484 1
    8728     3078     3079 1
    8729    10833    10834 1
    8730     9834     9835 1
    8731    11913    11914 1
    8732     4109     4110 1
    8733     3890     3891 1
    8734     4629     4631 1
    8735     6483     6485 1
    8736     3790     3791 1
    8737     3577     3578 1
    8738    10176    10178 1
    8739    11526    11528 1
    8740       82       83 1
    8741     1697     1698 1
    8742     9771     9773 1
    8743    11175    11177 1
    8744     1382     1383 1
    8745     9933     9935 1
    8746     1694     1695 1
    8747    10014    10016 1
    8748      979      980 1
    8749     1627     1628 1
    8750    11106    11107 1
    8751      263      264 1
    8752      223      224 1
    8753    10377    10378 1
    8754    10539    10540 1
    8755     2819     2820 1
    8756    11295    11296 1
    8757    11268    11269 1
    8758    11979    11980 1
    8759    10224    10225 1
    8760    10062    10063 1
    8761    10143    10144 1
    8762     3109     3111 1
    8763    10305    10306 1
    8764     3379     3381 1
    8765     4104     4105 1
    8766      384      385 1
    8767     1611     1612 1
    8768     1914     1915 1
    8769    10194    10196 1
    8770    10356    10358 1
    8771    10485    10487 1
    8772    11079    11081 1
    8773     4482     4484 1
    8774    10998    11000 1
    8775     4530     4532 1
    8776    10917    10919 1
    8777    10566    10568 1
    8778     1678     1677 1
    8779      984      985 1
    8780     9336     9338 1
    8781    11763    11765 1
    8782     9522     9524 1
    8783    10683    10685 1
    8784     1327     1328 1
    8785     1892     1893 1
    8786      129      130 1
    8787     9684     9686 1
    8788     1540     1541 1
    8789    11601    11603 1
    8790     3788     3787 1
    8791     4005     4006 1
    8792     1281     1282 1
    8793      969      970 1
    8794      744      745 1
    8795     1392     1393 1
    8796     4689     4690 1
    8797     4034     4035 1
    8798     3221     3222 1
    8799      412      391 1
    8800     1276     1255 1
    8801     2318     2319 1
    8802     2405     2406 1
    8803     8715     8716 1
    8804     3920     3921 1
    8805     1755     1756 1
    8806     3026     3027 1
    8807     3251     3252 1
    8808     4728     4730 1
    8809    11694    11695 1
    8810    11100    11101 1
    8811     9777     9778 1
    8812    12018    12019 1
    8813     9615     9616 1
    8814    11262    11263 1
    8815     3076     3078 1
    8816     7785     7787 1
    8817     5112     5114 1
    8818     9381     9382 1
    8819     9462     9463 1
    8820     3800     3799 1
    8821     7464     7465 1
    8822     4818     4819 1
    8823     7545     7546 1
    8824     7302     7303 1
    8825     9300     9301 1
    8826     5466     5467 1
    8827     4186     4187 1
    8828       88       89 1
    8829     1763     1762 1
    8830      368      369 1
    8831     6894     6896 1
    8832     6651     6653 1
    8833     8730     8732 1
    8834     1138     1139 1
    8835    11865    11866 1
    8836     3042     3044 1
    8837      284      283 1
    8838     3399     3400 1
    8839     9147     9148 1
    8840     8229     8230 1
    8841     7392     7393 1
    8842     8391     8392 1
    8843     2937     2938 1
    8844     1621     1624 1
    8845      206      205 1
    8846     3209     3210 1
    8847     1628     1630 1
    8848      224      226 1
    8849     3748     3747 1
    8850     4671     4672 1
    8851      207      208 1
    8852     1210     1211 1
    8853     4833     4835 1
    8854     1202     1203 1
    8855      954      955 1
    8856     5676     5677 1
    8857      181      180 1
    8858     1058     1057 1
    8859     1370     1369 1
    8860      725      724 1
    8861     4815     4816 1
    8862     4557     4558 1
    8863     8571     8573 1
    8864     5574     5576 1
    8865     5412     5414 1
    8866     7329     7331 1
    8867     6330     6332 1
    8868     8409     8411 1
    8869     6492     6494 1
    8870     4312     4313 1
    8871     4863     4864 1
    8872     2595     2596 1
    8873      449      450 1
    8874       34       35 1
    8875     3359     3360 1
    8876     2597     2598 1
    8877      142      121 1
    8878     2727     2728 1
    8879      268      267 1
    8880     2745     2746 1
    8881     2316     2317 1
    8882     2517     2518 1
    8883    11115    11116 1
    8884    11277    11278 1
    8885      499      500 1
    8886    10815    10816 1
    8887    11328    11329 1
    8888    11058    11059 1
    8889    10977    10978 1
    8890     1863     1864 1
    8891      771      772 1
    8892     4446     4447 1
    8893     2886     2889 1
    8894     2994     2997 1
    8895     6411     6413 1
    8896     8061     8063 1
    8897     7224     7226 1
    8898     6306     6308 1
    8899     8979     8981 1
    8900     6144     6146 1
    8901      246      245 1
    8902     4127     4116 1
    8903     1384     1363 1
    8904     5559     5560 1
    8905     7152     7153 1
    8906     6936     6937 1
    8907     9231     9232 1
    8908     6774     6775 1
    8909     5010     5011 1
    8910     5928     5929 1
    8911     5523     5524 1
    8912     5685     5686 1
    8913     7521     7522 1
    8914     5766     5767 1
    8915     7764     7765 1
    8916     4401     4402 1
    8917     4929     4930 1
    8918     3873     3874 1
    8919     2154     2155 1
    8920     1375     1376 1
    8921     6111     6113 1
    8922     1104     1105 1
    8923     1209     1210 1
    8924      240      241 1
    8925     1641     1642 1
    8926     1215     1216 1
    8927     1098     1099 1
    8928      374      375 1
    8929     2999     3000 1
    8930     9054     9055 1
    8931     6975     6976 1
    8932     7824     7826 1
    8933     6285     6287 1
    8934     4989     4991 1
    8935      929      930 1
    8936      705      706 1
    8937     2089     2088 1
    8938     1304     1306 1
    8939     5910     5912 1
    8940     5154     5156 1
    8941     6990     6992 1
    8942     9069     9071 1
    8943     8907     8909 1
    8944     6072     6074 1
    8945     6828     6830 1
    8946    11991    11993 1
    8947    10074    10076 1
    8948     1402     1403 1
    8949    11829    11831 1
    8950     3908     3909 1
    8951     1362     1363 1
    8952    10125    10127 1
    8953     1573     1574 1
    8954     4572     4574 1
    8955     2218     2219 1
    8956     9651     9652 1
    8957     3257     3260 1
    8958     8220     8222 1
    8959     8301     8303 1
    8960     1044     1045 1
    8961     8382     8384 1
    8962     4007     4006 1
    8963     4225     4214 1
    8964      591      592 1
    8965     4154     4143 1
    8966     1100     1101 1
    8967     1436     1437 1
    8968      629      630 1
    8969    11172    11173 1
    8970    11253    11254 1
    8971     3020     3021 1
    8972     2651     2652 1
    8973     3512     3513 1
    8974     3980     3981 1
    8975     2639     2640 1
    8976     1224     1226 1
    8977     1116     1118 1
    8978     2428     2430 1
    8979     6849     6851 1
    8980     9144     9146 1
    8981    11202    11204 1
    8982     7389     7391 1
    8983    10662    10664 1
    8984      481      482 1
    8985     1555     1556 1
    8986      370      371 1
    8987      879      881 1
    8988    10809    10810 1
    8989    11322    11323 1
    8990    11052    11053 1
    8991     1527     1529 1
    8992      763      764 1
    8993    10971    10972 1
    8994      655      656 1
    8995     4458     4459 1
    8996    10416    10418 1
    8997    10254    10256 1
    8998    10197    10198 1
    8999    11736    11737 1
    9000    10278    10279 1
    9001    11817    11818 1
    9002    10359    10360 1
    9003      767      768 1
    9004     1624     1625 1
    9005      328      329 1
    9006     7566     7568 1
    9007     4893     4895 1
    9008     8484     8486 1
    9009     9483     9485 1
    9010     3206     3204 1
    9011     6567     6569 1
    9012     5649     5651 1
    9013     6729     6731 1
    9014     6096     6097 1
    9015     7938     7940 1
    9016     5103     5105 1
    9017     8316     8318 1
    9018      231      232 1
    9019      438      437 1
    9020      649      652 1
    9021     4854     4855 1
    9022      146      144 1
    9023     1546     1547 1
    9024     4578     4580 1
    9025     9702     9704 1
    9026    10701    10703 1
    9027     3963     3964 1
    9028    11214    11216 1
    9029     9864     9866 1
    9030    10134    10136 1
    9031     4626     4628 1
    9032    10296    10298 1
    9033     3493     3494 1
    9034    10737    10739 1
    9035    11439    11441 1
    9036    10899    10901 1
    9037     7278     7280 1
    9038     9114     9116 1
    9039     3722     3701 1
    9040     4295     4284 1
    9041     4289     4290 1
    9042     7035     7037 1
    9043     7116     7118 1
    9044      237      236 1
    9045     6858     6859 1
    9046     6939     6940 1
    9047     7398     7399 1
    9048     4211     4212 1
    9049     1256     1257 1
    9050      392      393 1
    9051      258      257 1
    9052      656      657 1
    9053     5955     5956 1
    9054     8196     8197 1
    9055     5361     5362 1
    9056     8034     8035 1
    9057     2711     2712 1
    9058     2498     2499 1
    9059     3944     3933 1
    9060     4323     4312 1
    9061     3977     3978 1
    9062     4797     4799 1
    9063     4716     4718 1
    9064     6060     6062 1
    9065     6816     6818 1
    9066    11316    11317 1
    9067     4470     4472 1
    9068     2720     2719 1
    9069    11955    11956 1
    9070      654      655 1
    9071     1996     1997 1
    9072     4215     4216 1
    9073     2365     2366 1
    9074     2476     2477 1
    9075     2007     2008 1
    9076    10206    10207 1
    9077    11205    11206 1
    9078     4110     4111 1
    9079     5799     5800 1
    9080     5043     5044 1
    9081     6123     6124 1
    9082     7554     7555 1
    9083     9471     9472 1
    9084     6321     6323 1
    9085     7878     7879 1
    9086     8562     8564 1
    9087     8400     8402 1
    9088     5205     5206 1
    9089    10407    10409 1
    9090     8157     8159 1
    9091    10434    10436 1
    9092    10245    10247 1
    9093     8319     8321 1
    9094    10596    10598 1
    9095    11244    11246 1
    9096     8154     8156 1
    9097      757      760 1
    9098      315      314 1
    9099     2851     2852 1
    9100     8766     8767 1
    9101     8604     8605 1
    9102     1109     1108 1
    9103     7227     7228 1
    9104     6687     6688 1
    9105     8982     8983 1
    9106     4001     4002 1
    9107      204      205 1
    9108     2968     2969 1
    9109     7941     7942 1
    9110     6024     6025 1
    9111     7401     7402 1
    9112     5268     5269 1
    9113     7779     7780 1
    9114     5484     5485 1
    9115     3372     3375 1
    9116     9318     9319 1
    9117     5106     5107 1
    9118     5508     5509 1
    9119     1909     1910 1
    9120     1479     1480 1
    9121     1053     1054 1
    9122     9462     9464 1
    9123     7545     7547 1
    9124     7464     7466 1
    9125     7302     7304 1
    9126     9300     9302 1
    9127     9381     9383 1
    9128     5466     5468 1
    9129     7434     7435 1
    9130     3857     3858 1
    9131    10671    10672 1
    9132    11589    11590 1
    9133    11751    11752 1
    9134    10185    10186 1
    9135     9672     9673 1
    9136    11184    11185 1
    9137    10347    10348 1
    9138    10740    10741 1
    9139    10902    10903 1
    9140    10659    10660 1
    9141     2207     2208 1
    9142      508      509 1
    9143       78       79 1
    9144     2282     2283 1
    9145      295      296 1
    9146     1807     1808 1
    9147    10122    10123 1
    9148    11337    11338 1
    9149    11877    11878 1
    9150    11796    11797 1
    9151    10041    10042 1
    9152     3299     3300 1
    9153     9960     9961 1
    9154    11958    11959 1
    9155      193      194 1
    9156     1271     1272 1
    9157       85       86 1
    9158     1972     1973 1
    9159      589      590 1
    9160      478      479 1
    9161     1301     1302 1
    9162     3276     3277 1
    9163     2313     2314 1
    9164     2424     2425 1
    9165     1553     1554 1
    9166      590      591 1
    9167     5382     5383 1
    9168    10389    10391 1
    9169    10551    10553 1
    9170    11307    11309 1
    9171    11631    11633 1
    9172    11544    11545 1
    9173    10788    10789 1
    9174    10464    10465 1
    9175    10626    10627 1
    9176     2101     2100 1
    9177     5496     5497 1
    9178      975      976 1
    9179     1330     1309 1
    9180     3995     3994 1
    9181     2236     2235 1
    9182     2054     2053 1
    9183      274      273 1
    9184      241      242 1
    9185      895      896 1
    9186     6600     6602 1
    9187     7290     7291 1
    9188     5535     5536 1
    9189      729      730 1
    9190     6132     6134 1
    9191     3618     3619 1
    9192     3306     3307 1
    9193     2544     2545 1
    9194     2858     2859 1
    9195     9732     9733 1
    9196    12027    12028 1
    9197    11649    11650 1
    9198    11406    11407 1
    9199    11487    11488 1
    9200     9570     9571 1
    9201    11568    11569 1
    9202      877      878 1
    9203      229      230 1
    9204     4239     4240 1
    9205     4812     4814 1
    9206     2265     2266 1
    9207     1699     1700 1
    9208     6798     6799 1
    9209     3410     3411 1
    9210     4713     4714 1
    9211     7626     7627 1
    9212     5628     5629 1
    9213     5709     5710 1
    9214     7707     7708 1
    9215     4953     4954 1
    9216     5871     5872 1
    9217     4091     4090 1
    9218     1314     1315 1
    9219     4029     4030 1
    9220     1732     1733 1
    9221     3099     3100 1
    9222     4161     4162 1
    9223     3207     3208 1
    9224      371      372 1
    9225     6852     6854 1
    9226     9120     9122 1
    9227     7284     7286 1
    9228     6933     6935 1
    9229     6771     6773 1
    9230     7041     7043 1
    9231     7122     7124 1
    9232      335      336 1
    9233      300      301 1
    9234     6834     6836 1
    9235      270      269 1
    9236      389      390 1
    9237     6915     6917 1
    9238     6753     6755 1
    9239      973      976 1
    9240     1923     1924 1
    9241     7152     7154 1
    9242     6936     6938 1
    9243     2626     2627 1
    9244     9231     9233 1
    9245     5559     5561 1
    9246     6774     6776 1
    9247     4043     4044 1
    9248     1543     1544 1
    9249     1432     1433 1
    9250     2457     2458 1
    9251     4617     4619 1
    9252     2443     2444 1
    9253      671      672 1
    9254     2171     2172 1
    9255     7374     7375 1
    9256     9129     9130 1
    9257     8211     8212 1
    9258     8373     8374 1
    9259     2940     2943 1
    9260     1825     1814 1
    9261     5247     5248 1
    9262     3163     3164 1
    9263     6273     6274 1
    9264     8271     8272 1
    9265     8082     8083 1
    9266     2731     2732 1
    9267     6354     6355 1
    9268     8001     8002 1
    9269     6000     6001 1
    9270     8241     8242 1
    9271     8511     8512 1
    9272     8430     8431 1
    9273     8349     8350 1
    9274     6594     6595 1
    9275     6405     6406 1
    9276     5325     5326 1
    9277     6432     6433 1
    9278     6162     6163 1
    9279      881      882 1
    9280    11280    11281 1
    9281    11118    11119 1
    9282     1493     1494 1
    9283     3342     3343 1
    9284     1612     1613 1
    9285     1915     1916 1
    9286     2924     2925 1
    9287     3560     3561 1
    9288     4461     4463 1
    9289       60       61 1
    9290     3807     3808 1
    9291     2306     2307 1
    9292     4301     4302 1
    9293     3483     3484 1
    9294     4190     4191 1
    9295     3392     3393 1
    9296     3136     3137 1
    9297     6045     6047 1
    9298     8264     8262 1
    9299     6185     6183 1
    9300     1228     1229 1
    9301      916      917 1
    9302    10755    10756 1
    9303    10836    10837 1
    9304     6057     6058 1
    9305     3999     4000 1
    9306    10497    10499 1
    9307    10578    10580 1
    9308      391      392 1
    9309     2397     2396 1
    9310     3318     3320 1
    9311     1283     1282 1
    9312      971      970 1
    9313      791      792 1
    9314     2179     2180 1
    9315     1029     1030 1
    9316     4452     4453 1
    9317     2081     2082 1
    9318     1747     1748 1
    9319     2482     2484 1
    9320     2153     2154 1
    9321    10842    10844 1
    9322     3369     3370 1
    9323    11382    11384 1
    9324    10761    10763 1
    9325    11463    11465 1
    9326    11139    11141 1
    9327     9546     9548 1
    9328       45       46 1
    9329    11673    11675 1
    9330    10188    10190 1
    9331     4362     4364 1
    9332    10350    10352 1
    9333     4722     4723 1
    9334     4803     4804 1
    9335      768      769 1
    9336       66       67 1
    9337     3952     3953 1
    9338     8547     8549 1
    9339     5631     5633 1
    9340     7710     7712 1
    9341     6630     6632 1
    9342     1460     1462 1
    9343     6792     6794 1
    9344      564      563 1
@<TRIPOS>SUBSTRUCTURE
       1 RES             1 RESIDUE    0 **** ROOT      0
