@<TRIPOS>MOLECULE
RES
3648 2976 1 0 1
SMALL
NO_CHARGES
@<TRIPOS>CRYSIN
   32.7230    29.0640    94.4330    90.0000    90.0000    90.0000  1  1
@<TRIPOS>ATOM
       1 CH3          5.4772     5.4772     0.0000 CH3           1 RES     
       2 CH3          3.2145     5.6523     0.6184 CH3           1 RES     
       3 CH3          4.7440     6.9038     1.5551 CH3           1 RES     
       4 NL           4.3824     6.2829     0.4440 NL            1 RES     
       5 CH2          4.2308     7.3413    -0.4478 CH2           1 RES     
       6 CH2          3.8115     6.5868    -1.7232 CH2           1 RES     
       7 OA           3.5947     7.5583    -2.8252 OA            1 RES     
       8 P            2.0610     8.0127    -2.7890 P             1 RES     
       9 OM           1.1830     6.6973    -3.0315 OM            1 RES     
      10 OM           1.8213     8.7199    -1.3740 OM            1 RES     
      11 OA           1.7872     9.0627    -3.9649 OA            1 RES     
      12 CH2          0.3581     9.4611    -3.9007 CH2           1 RES     
      13 CH1         -0.1412     9.7830    -5.1222 CH1           1 RES     
      14 OE          -0.9842     8.5963    -4.9176 OE            1 RES     
      15 C           -1.5715     7.7722    -6.0248 C             1 RES     
      16 O           -1.8316     6.5731    -5.9382 O             1 RES     
      17 CH2         -1.5253     8.6450    -7.1252 CH2           1 RES     
      18 CH2         -2.0009     7.7424    -8.2787 CH2           1 RES     
      19 CH2         -1.8470     8.4921    -9.6151 CH2           1 RES     
      20 CH2         -2.3226     7.5896   -10.7687 CH2           1 RES     
      21 CH2         -2.1687     8.3393   -12.1050 CH2           1 RES     
      22 CH2         -2.6443     7.4367   -13.2586 CH2           1 RES     
      23 CH2         -2.4905     8.1865   -14.5949 CH2           1 RES     
      24 CH2         -2.9661     7.2839   -15.7485 CH2           1 RES     
      25 CH2         -2.8122     8.0337   -17.0848 CH2           1 RES     
      26 CH2         -3.2878     7.1311   -18.2384 CH2           1 RES     
      27 CH2         -3.1339     7.8809   -19.5747 CH2           1 RES     
      28 CH2         -3.6095     6.9783   -20.7283 CH2           1 RES     
      29 CH2         -3.4556     7.7281   -22.0646 CH2           1 RES     
      30 CH2         -3.9312     6.8255   -23.2182 CH2           1 RES     
      31 CH2         -3.7773     7.5752   -24.5545 CH2           1 RES     
      32 CH2         -4.2529     6.6727   -25.7081 CH2           1 RES     
      33 CH3         -4.1061     7.3883   -26.9837 CH3           1 RES     
      34 CH2          0.9216     9.4791    -6.1944 CH2           1 RES     
      35 OE           0.1874     8.8003    -7.2642 OE            1 RES     
      36 C            1.3341     8.5783    -8.2054 C             1 RES     
      37 O            2.4928     8.9282    -7.9865 O             1 RES     
      38 CH2          0.7007     8.1051    -9.3670 CH2           1 RES     
      39 CH2          1.8711     8.0140   -10.3637 CH2           1 RES     
      40 CH2          1.3285     7.6724   -11.7639 CH2           1 RES     
      41 CH2          2.4989     7.5813   -12.7606 CH2           1 RES     
      42 CH2          1.9564     7.2396   -14.1608 CH2           1 RES     
      43 CH2          3.1268     7.1485   -15.1575 CH2           1 RES     
      44 CH2          2.5842     6.8068   -16.5577 CH2           1 RES     
      45 CH2          3.7546     6.7157   -17.5544 CH2           1 RES     
      46 CH2          3.2120     6.3740   -18.9546 CH2           1 RES     
      47 CH2          4.3824     6.2829   -19.9513 CH2           1 RES     
      48 CH2          3.8398     5.9413   -21.3514 CH2           1 RES     
      49 CH2          5.0102     5.8502   -22.3482 CH2           1 RES     
      50 CH2          4.4677     5.5085   -23.7483 CH2           1 RES     
      51 CH2          5.6381     5.4174   -24.7450 CH2           1 RES     
      52 CH2          5.0955     5.0757   -26.1452 CH2           1 RES     
      53 CH2          6.2659     4.9846   -27.1419 CH2           1 RES     
      54 CH3          5.7480     4.6585   -28.4785 CH3           1 RES     
      55 CH3          0.0000     5.4772     0.0000 CH3           1 RES     
      56 CH3         -2.2596     5.2654     0.6184 CH3           1 RES     
      57 CH3         -0.9649     6.7586     1.5551 CH3           1 RES     
      58 NL          -1.2158     6.0853     0.4440 NL            1 RES     
      59 CH2         -1.5449     7.1025    -0.4478 CH2           1 RES     
      60 CH2         -1.8300     6.2878    -1.7232 CH2           1 RES     
      61 OA          -2.2087     7.2083    -2.8252 OA            1 RES     
      62 P           -3.7973     7.3956    -2.7890 P             1 RES     
      63 OM          -4.4390     5.9501    -3.0315 OM            1 RES     
      64 OM          -4.1536     8.0518    -1.3740 OM            1 RES     
      65 OA          -4.2455     8.3837    -3.9649 OA            1 RES     
      66 CH2         -5.7215     8.5336    -3.9007 CH2           1 RES     
      67 CH1         -6.2682     8.7661    -5.1222 CH1           1 RES     
      68 OE          -6.8973     7.4533    -4.9176 OE            1 RES     
      69 C           -7.3361     6.5415    -6.0248 C             1 RES     
      70 O           -7.3887     5.3156    -5.9382 O             1 RES     
      71 CH2         -7.4389     7.4094    -7.1252 CH2           1 RES     
      72 CH2         -7.7542     6.4391    -8.2787 CH2           1 RES     
      73 CH2         -7.7299     7.2041    -9.6151 CH2           1 RES     
      74 CH2         -8.0453     6.2339   -10.7687 CH2           1 RES     
      75 CH2         -8.0210     6.9989   -12.1050 CH2           1 RES     
      76 CH2         -8.3364     6.0286   -13.2586 CH2           1 RES     
      77 CH2         -8.3121     6.7937   -14.5949 CH2           1 RES     
      78 CH2         -8.6275     5.8234   -15.7485 CH2           1 RES     
      79 CH2         -8.6032     6.5884   -17.0848 CH2           1 RES     
      80 CH2         -8.9186     5.6181   -18.2384 CH2           1 RES     
      81 CH2         -8.8943     6.3832   -19.5747 CH2           1 RES     
      82 CH2         -9.2097     5.4129   -20.7283 CH2           1 RES     
      83 CH2         -9.1854     6.1779   -22.0646 CH2           1 RES     
      84 CH2         -9.5007     5.2077   -23.2182 CH2           1 RES     
      85 CH2         -9.4765     5.9727   -24.5545 CH2           1 RES     
      86 CH2         -9.7918     5.0024   -25.7081 CH2           1 RES     
      87 CH3         -9.7687     5.7326   -26.9837 CH3           1 RES     
      88 CH2         -5.1692     8.6471    -6.1944 CH2           1 RES     
      89 OE          -5.7775     7.8534    -7.2642 OE            1 RES     
      90 C           -4.6097     7.8295    -8.2054 C             1 RES     
      91 O           -3.5273     8.3711    -7.9865 O             1 RES     
      92 CH2         -5.1535     7.2556    -9.3670 CH2           1 RES     
      93 CH2         -3.9846     7.3646   -10.3637 CH2           1 RES     
      94 CH2         -4.4613     6.9357   -11.7639 CH2           1 RES     
      95 CH2         -3.2924     7.0448   -12.7606 CH2           1 RES     
      96 CH2         -3.7691     6.6159   -14.1608 CH2           1 RES     
      97 CH2         -2.6002     6.7249   -15.1575 CH2           1 RES     
      98 CH2         -3.0768     6.2960   -16.5577 CH2           1 RES     
      99 CH2         -1.9080     6.4051   -17.5544 CH2           1 RES     
     100 CH2         -2.3846     5.9762   -18.9546 CH2           1 RES     
     101 CH2         -1.2158     6.0853   -19.9513 CH2           1 RES     
     102 CH2         -1.6924     5.6564   -21.3514 CH2           1 RES     
     103 CH2         -0.5235     5.7654   -22.3482 CH2           1 RES     
     104 CH2         -1.0002     5.3365   -23.7483 CH2           1 RES     
     105 CH2          0.1687     5.4456   -24.7450 CH2           1 RES     
     106 CH2         -0.3080     5.0167   -26.1452 CH2           1 RES     
     107 CH2          0.8609     5.1257   -27.1419 CH2           1 RES     
     108 CH3          0.4059     4.7163   -28.4785 CH3           1 RES     
     109 CH3          0.0000    10.9545     0.0000 CH3           1 RES     
     110 CH3         -2.2644    11.1059     0.6184 CH3           1 RES     
     111 CH3         -0.7481    12.3733     1.5551 CH3           1 RES     
     112 NL          -1.1032    11.7487     0.4440 NL            1 RES     
     113 CH2         -1.2658    12.8054    -0.4478 CH2           1 RES     
     114 CH2         -1.6772    12.0466    -1.7232 CH2           1 RES     
     115 OA          -1.9042    13.0158    -2.8252 OA            1 RES     
     116 P           -3.4426    13.4541    -2.7890 P             1 RES     
     117 OM          -4.3067    12.1295    -3.0315 OM            1 RES     
     118 OM          -3.6896    14.1587    -1.3740 OM            1 RES     
     119 OA          -3.7273    14.5011    -3.9649 OA            1 RES     
     120 CH2         -5.1605    14.8846    -3.9007 CH2           1 RES     
     121 CH1         -5.6631    15.2013    -5.1222 CH1           1 RES     
     122 OE          -6.4937    14.0058    -4.9176 OE            1 RES     
     123 C           -7.0723    13.1756    -6.0248 C             1 RES     
     124 O           -7.3198    11.9739    -5.9382 O             1 RES     
     125 CH2         -7.0353    14.0488    -7.1252 CH2           1 RES     
     126 CH2         -7.5014    13.1413    -8.2787 CH2           1 RES     
     127 CH2         -7.3554    13.8926    -9.6151 CH2           1 RES     
     128 CH2         -7.8215    12.9851   -10.7687 CH2           1 RES     
     129 CH2         -7.6755    13.7364   -12.1050 CH2           1 RES     
     130 CH2         -8.1416    12.8289   -13.2586 CH2           1 RES     
     131 CH2         -7.9956    13.5803   -14.5949 CH2           1 RES     
     132 CH2         -8.4617    12.6728   -15.7485 CH2           1 RES     
     133 CH2         -8.3157    13.4241   -17.0848 CH2           1 RES     
     134 CH2         -8.7818    12.5166   -18.2384 CH2           1 RES     
     135 CH2         -8.6358    13.2679   -19.5747 CH2           1 RES     
     136 CH2         -9.1019    12.3604   -20.7283 CH2           1 RES     
     137 CH2         -8.9559    13.1117   -22.0646 CH2           1 RES     
     138 CH2         -9.4220    12.2042   -23.2182 CH2           1 RES     
     139 CH2         -9.2760    12.9556   -24.5545 CH2           1 RES     
     140 CH2         -9.7421    12.0481   -25.7081 CH2           1 RES     
     141 CH3         -9.6027    12.7653   -26.9837 CH3           1 RES     
     142 CH2         -4.5972    14.9085    -6.1944 CH2           1 RES     
     143 OE          -5.3243    14.2221    -7.2642 OE            1 RES     
     144 C           -4.1753    14.0121    -8.2054 C             1 RES     
     145 O           -3.0204    14.3741    -7.9865 O             1 RES     
     146 CH2         -4.8037    13.5323    -9.3670 CH2           1 RES     
     147 CH2         -3.6324    13.4534   -10.3637 CH2           1 RES     
     148 CH2         -4.1714    13.1061   -11.7639 CH2           1 RES     
     149 CH2         -3.0001    13.0272   -12.7606 CH2           1 RES     
     150 CH2         -3.5391    12.6799   -14.1608 CH2           1 RES     
     151 CH2         -2.3678    12.6010   -15.1575 CH2           1 RES     
     152 CH2         -2.9068    12.2537   -16.5577 CH2           1 RES     
     153 CH2         -1.7355    12.1749   -17.5544 CH2           1 RES     
     154 CH2         -2.2745    11.8275   -18.9546 CH2           1 RES     
     155 CH2         -1.1032    11.7487   -19.9513 CH2           1 RES     
     156 CH2         -1.6421    11.4013   -21.3514 CH2           1 RES     
     157 CH2         -0.4709    11.3225   -22.3482 CH2           1 RES     
     158 CH2         -1.0098    10.9751   -23.7483 CH2           1 RES     
     159 CH2          0.1615    10.8963   -24.7450 CH2           1 RES     
     160 CH2         -0.3775    10.5490   -26.1452 CH2           1 RES     
     161 CH2          0.7938    10.4701   -27.1419 CH2           1 RES     
     162 CH3          0.2793    10.1386   -28.4785 CH3           1 RES     
     163 CH3         10.9545    16.4317     0.0000 CH3           1 RES     
     164 CH3          8.8387    17.2528     0.6184 CH3           1 RES     
     165 CH3         10.6645    18.0093     1.5551 CH3           1 RES     
     166 NL          10.1390    17.5192     0.4440 NL            1 RES     
     167 CH2         10.2995    18.5763    -0.4478 CH2           1 RES     
     168 CH2          9.6802    17.9751    -1.7232 CH2           1 RES     
     169 OA           9.7531    18.9678    -2.8252 OA            1 RES     
     170 P            8.4160    19.8457    -2.7890 P             1 RES     
     171 OM           7.1956    18.8399    -3.0315 OM            1 RES     
     172 OM           8.3908    20.5920    -1.3740 OM            1 RES     
     173 OA           8.4571    20.9300    -3.9649 OA            1 RES     
     174 CH2          7.2039    21.7242    -3.9007 CH2           1 RES     
     175 CH1          6.8189    22.1766    -5.1222 CH1           1 RES     
     176 OE           5.6691    21.2838    -4.9176 OE            1 RES     
     177 C            4.8689    20.6645    -6.0248 C             1 RES     
     178 O            4.2736    19.5916    -5.9382 O             1 RES     
     179 CH2          5.1651    21.4867    -7.1252 CH2           1 RES     
     180 CH2          4.4491    20.7600    -8.2787 CH2           1 RES     
     181 CH2          4.8130    21.4333    -9.6151 CH2           1 RES     
     182 CH2          4.0970    20.7066   -10.7687 CH2           1 RES     
     183 CH2          4.4608    21.3799   -12.1050 CH2           1 RES     
     184 CH2          3.7448    20.6532   -13.2586 CH2           1 RES     
     185 CH2          4.1087    21.3265   -14.5949 CH2           1 RES     
     186 CH2          3.3927    20.5998   -15.7485 CH2           1 RES     
     187 CH2          3.7565    21.2731   -17.0848 CH2           1 RES     
     188 CH2          3.0405    20.5464   -18.2384 CH2           1 RES     
     189 CH2          3.4044    21.2198   -19.5747 CH2           1 RES     
     190 CH2          2.6884    20.4930   -20.7283 CH2           1 RES     
     191 CH2          3.0522    21.1664   -22.0646 CH2           1 RES     
     192 CH2          2.3363    20.4396   -23.2182 CH2           1 RES     
     193 CH2          2.7001    21.1130   -24.5545 CH2           1 RES     
     194 CH2          1.9841    20.3862   -25.7081 CH2           1 RES     
     195 CH3          2.3314    21.0290   -26.9837 CH3           1 RES     
     196 CH2          7.7487    21.5787    -6.1944 CH2           1 RES     
     197 OE           6.8497    21.1409    -7.2642 OE            1 RES     
     198 C            7.8835    20.5971    -8.2054 C             1 RES     
     199 O            9.0938    20.5975    -7.9865 O             1 RES     
     200 CH2          7.1404    20.3270    -9.3670 CH2           1 RES     
     201 CH2          8.2346    19.9018   -10.3637 CH2           1 RES     
     202 CH2          7.6165    19.7314   -11.7639 CH2           1 RES     
     203 CH2          8.7107    19.3062   -12.7606 CH2           1 RES     
     204 CH2          8.0926    19.1357   -14.1608 CH2           1 RES     
     205 CH2          9.1868    18.7105   -15.1575 CH2           1 RES     
     206 CH2          8.5687    18.5401   -16.5577 CH2           1 RES     
     207 CH2          9.6629    18.1149   -17.5544 CH2           1 RES     
     208 CH2          9.0448    17.9444   -18.9546 CH2           1 RES     
     209 CH2         10.1390    17.5192   -19.9513 CH2           1 RES     
     210 CH2          9.5208    17.3488   -21.3514 CH2           1 RES     
     211 CH2         10.6151    16.9236   -22.3482 CH2           1 RES     
     212 CH2          9.9969    16.7531   -23.7483 CH2           1 RES     
     213 CH2         11.0912    16.3279   -24.7450 CH2           1 RES     
     214 CH2         10.4730    16.1575   -26.1452 CH2           1 RES     
     215 CH2         11.5673    15.7323   -27.1419 CH2           1 RES     
     216 CH3         10.9772    15.5696   -28.4785 CH3           1 RES     
     217 CH3         10.9545     5.4772     0.0000 CH3           1 RES     
     218 CH3          8.7297     5.0289     0.6184 CH3           1 RES     
     219 CH3          9.8601     6.6500     1.5551 CH3           1 RES     
     220 NL           9.6815     5.9540     0.4440 NL            1 RES     
     221 CH2          9.2472     6.9310    -0.4478 CH2           1 RES     
     222 CH2          9.0494     6.0908    -1.7232 CH2           1 RES     
     223 OA           8.5759     6.9664    -2.8252 OA            1 RES     
     224 P            6.9765     6.9855    -2.7890 P             1 RES     
     225 OM           6.4903     5.4806    -3.0315 OM            1 RES     
     226 OM           6.5531     7.6006    -1.3740 OM            1 RES     
     227 OA           6.4268     7.9211    -3.9649 OA            1 RES     
     228 CH2          4.9432     7.9149    -3.9007 CH2           1 RES     
     229 CH1          4.3751     8.0886    -5.1222 CH1           1 RES     
     230 OE           3.8875     6.7170    -4.9176 OE            1 RES     
     231 C            3.5471     5.7640    -6.0248 C             1 RES     
     232 O            3.6237     4.5394    -5.9382 O             1 RES     
     233 CH2          3.3536     6.6163    -7.1252 CH2           1 RES     
     234 CH2          3.1421     5.6183    -8.2787 CH2           1 RES     
     235 CH2          3.0858     6.3816    -9.6151 CH2           1 RES     
     236 CH2          2.8742     5.3835   -10.7687 CH2           1 RES     
     237 CH2          2.8179     6.1468   -12.1050 CH2           1 RES     
     238 CH2          2.6063     5.1488   -13.2586 CH2           1 RES     
     239 CH2          2.5500     5.9121   -14.5949 CH2           1 RES     
     240 CH2          2.3384     4.9141   -15.7485 CH2           1 RES     
     241 CH2          2.2821     5.6774   -17.0848 CH2           1 RES     
     242 CH2          2.0705     4.6794   -18.2384 CH2           1 RES     
     243 CH2          2.0142     5.4427   -19.5747 CH2           1 RES     
     244 CH2          1.8026     4.4446   -20.7283 CH2           1 RES     
     245 CH2          1.7463     5.2080   -22.0646 CH2           1 RES     
     246 CH2          1.5348     4.2099   -23.2182 CH2           1 RES     
     247 CH2          1.4784     4.9732   -24.5545 CH2           1 RES     
     248 CH2          1.2669     3.9752   -25.7081 CH2           1 RES     
     249 CH3          1.2131     4.7038   -26.9837 CH3           1 RES     
     250 CH2          5.4805     8.0858    -6.1944 CH2           1 RES     
     251 OE           4.9591     7.2326    -7.2642 OE            1 RES     
     252 C            6.1229     7.3316    -8.2054 C             1 RES     
     253 O            7.1424     7.9841    -7.9865 O             1 RES     
     254 CH2          5.6425     6.7037    -9.3670 CH2           1 RES     
     255 CH2          6.7934     6.9351   -10.3637 CH2           1 RES     
     256 CH2          6.3645     6.4584   -11.7639 CH2           1 RES     
     257 CH2          7.5154     6.6898   -12.7606 CH2           1 RES     
     258 CH2          7.0865     6.2131   -14.1608 CH2           1 RES     
     259 CH2          8.2375     6.4445   -15.1575 CH2           1 RES     
     260 CH2          7.8086     5.9679   -16.5577 CH2           1 RES     
     261 CH2          8.9595     6.1993   -17.5544 CH2           1 RES     
     262 CH2          8.5306     5.7226   -18.9546 CH2           1 RES     
     263 CH2          9.6815     5.9540   -19.9513 CH2           1 RES     
     264 CH2          9.2526     5.4774   -21.3514 CH2           1 RES     
     265 CH2         10.4035     5.7088   -22.3482 CH2           1 RES     
     266 CH2          9.9746     5.2321   -23.7483 CH2           1 RES     
     267 CH2         11.1255     5.4635   -24.7450 CH2           1 RES     
     268 CH2         10.6966     4.9868   -26.1452 CH2           1 RES     
     269 CH2         11.8475     5.2182   -27.1419 CH2           1 RES     
     270 CH3         11.4381     4.7633   -28.4785 CH3           1 RES     
     271 CH3          5.4772    10.9545     0.0000 CH3           1 RES     
     272 CH3          3.5983    12.2273     0.6184 CH3           1 RES     
     273 CH3          5.5468    12.5570     1.5551 CH3           1 RES     
     274 NL           4.9252    12.1966     0.4440 NL            1 RES     
     275 CH2          5.3178    13.1912    -0.4478 CH2           1 RES     
     276 CH2          4.5798    12.7434    -1.7232 CH2           1 RES     
     277 OA           4.8726    13.6948    -2.8252 OA            1 RES     
     278 P            3.7653    14.8492    -2.7890 P             1 RES     
     279 OM           2.3510    14.1413    -3.0315 OM            1 RES     
     280 OM           3.9074    15.5822    -1.3740 OM            1 RES     
     281 OA           4.0475    15.8969    -3.9649 OA            1 RES     
     282 CH2          3.0033    16.9509    -3.9007 CH2           1 RES     
     283 CH1          2.7291    17.4778    -5.1222 CH1           1 RES     
     284 OE           1.4089    16.8644    -4.9176 OE            1 RES     
     285 C            0.4906    16.4394    -6.0248 C             1 RES     
     286 O           -0.3293    15.5265    -5.9382 O             1 RES     
     287 CH2          0.9630    17.1747    -7.1252 CH2           1 RES     
     288 CH2          0.1027    16.6262    -8.2787 CH2           1 RES     
     289 CH2          0.6078    17.2013    -9.6151 CH2           1 RES     
     290 CH2         -0.2524    16.6527   -10.7687 CH2           1 RES     
     291 CH2          0.2526    17.2279   -12.1050 CH2           1 RES     
     292 CH2         -0.6076    16.6793   -13.2586 CH2           1 RES     
     293 CH2         -0.1026    17.2545   -14.5949 CH2           1 RES     
     294 CH2         -0.9628    16.7059   -15.7485 CH2           1 RES     
     295 CH2         -0.4577    17.2811   -17.0848 CH2           1 RES     
     296 CH2         -1.3180    16.7325   -18.2384 CH2           1 RES     
     297 CH2         -0.8129    17.3077   -19.5747 CH2           1 RES     
     298 CH2         -1.6731    16.7591   -20.7283 CH2           1 RES     
     299 CH2         -1.1681    17.3342   -22.0646 CH2           1 RES     
     300 CH2         -2.0283    16.7857   -23.2182 CH2           1 RES     
     301 CH2         -1.5233    17.3608   -24.5545 CH2           1 RES     
     302 CH2         -2.3835    16.8123   -25.7081 CH2           1 RES     
     303 CH3         -1.9014    17.3613   -26.9837 CH3           1 RES     
     304 CH2          3.5018    16.6874    -6.1944 CH2           1 RES     
     305 OE           2.5278    16.4614    -7.2642 OE            1 RES     
     306 C            3.4140    15.7005    -8.2054 C             1 RES     
     307 O            4.5939    15.4306    -7.9865 O             1 RES     
     308 CH2          2.6294    15.6032    -9.3670 CH2           1 RES     
     309 CH2          3.6010    14.9444   -10.3637 CH2           1 RES     
     310 CH2          2.9604    14.9163   -11.7639 CH2           1 RES     
     311 CH2          3.9321    14.2574   -12.7606 CH2           1 RES     
     312 CH2          3.2915    14.2293   -14.1608 CH2           1 RES     
     313 CH2          4.2631    13.5705   -15.1575 CH2           1 RES     
     314 CH2          3.6225    13.5424   -16.5577 CH2           1 RES     
     315 CH2          4.5942    12.8836   -17.5544 CH2           1 RES     
     316 CH2          3.9536    12.8555   -18.9546 CH2           1 RES     
     317 CH2          4.9252    12.1966   -19.9513 CH2           1 RES     
     318 CH2          4.2846    12.1686   -21.3514 CH2           1 RES     
     319 CH2          5.2563    11.5097   -22.3482 CH2           1 RES     
     320 CH2          4.6157    11.4816   -23.7483 CH2           1 RES     
     321 CH2          5.5873    10.8228   -24.7450 CH2           1 RES     
     322 CH2          4.9467    10.7947   -26.1452 CH2           1 RES     
     323 CH2          5.9184    10.1359   -27.1419 CH2           1 RES     
     324 CH3          5.3069    10.1091   -28.4785 CH3           1 RES     
     325 CH3         10.9545     0.0000     0.0000 CH3           1 RES     
     326 CH3          9.1230     1.3403     0.6184 CH3           1 RES     
     327 CH3         11.0823     1.5989     1.5551 CH3           1 RES     
     328 NL          10.4480     1.2615     0.4440 NL            1 RES     
     329 CH2         10.8765     2.2411    -0.4478 CH2           1 RES     
     330 CH2         10.1227     1.8204    -1.7232 CH2           1 RES     
     331 OA          10.4499     2.7605    -2.8252 OA            1 RES     
     332 P            9.3854     3.9544    -2.7890 P             1 RES     
     333 OM           7.9463     3.2984    -3.0315 OM            1 RES     
     334 OM           9.5540     4.6818    -1.3740 OM            1 RES     
     335 OA           9.7055     4.9912    -3.9649 OA            1 RES     
     336 CH2          8.7004     6.0825    -3.9007 CH2           1 RES     
     337 CH1          8.4455     6.6190    -5.1222 CH1           1 RES     
     338 OE           7.1039     6.0540    -4.9176 OE            1 RES     
     339 C            6.1707     5.6627    -6.0248 C             1 RES     
     340 O            5.3182     4.7803    -5.9382 O             1 RES     
     341 CH2          6.6695     6.3804    -7.1252 CH2           1 RES     
     342 CH2          5.7899     5.8635    -8.2787 CH2           1 RES     
     343 CH2          6.3155     6.4199    -9.6151 CH2           1 RES     
     344 CH2          5.4359     5.9030   -10.7687 CH2           1 RES     
     345 CH2          5.9615     6.4594   -12.1050 CH2           1 RES     
     346 CH2          5.0819     5.9425   -13.2586 CH2           1 RES     
     347 CH2          5.6076     6.4989   -14.5949 CH2           1 RES     
     348 CH2          4.7280     5.9820   -15.7485 CH2           1 RES     
     349 CH2          5.2536     6.5384   -17.0848 CH2           1 RES     
     350 CH2          4.3740     6.0215   -18.2384 CH2           1 RES     
     351 CH2          4.8996     6.5779   -19.5747 CH2           1 RES     
     352 CH2          4.0200     6.0610   -20.7283 CH2           1 RES     
     353 CH2          4.5457     6.6174   -22.0646 CH2           1 RES     
     354 CH2          3.6661     6.1005   -23.2182 CH2           1 RES     
     355 CH2          4.1917     6.6569   -24.5545 CH2           1 RES     
     356 CH2          3.3121     6.1400   -25.7081 CH2           1 RES     
     357 CH3          3.8138     6.6711   -26.9837 CH3           1 RES     
     358 CH2          9.1889     5.8010    -6.1944 CH2           1 RES     
     359 OE           8.2073     5.6106    -7.2642 OE            1 RES     
     360 C            9.0653     4.8180    -8.2054 C             1 RES     
     361 O           10.2345     4.5053    -7.9865 O             1 RES     
     362 CH2          8.2776     4.7493    -9.3670 CH2           1 RES     
     363 CH2          9.2247     4.0555   -10.3637 CH2           1 RES     
     364 CH2          8.5835     4.0508   -11.7639 CH2           1 RES     
     365 CH2          9.5305     3.3570   -12.7606 CH2           1 RES     
     366 CH2          8.8893     3.3522   -14.1608 CH2           1 RES     
     367 CH2          9.8363     2.6585   -15.1575 CH2           1 RES     
     368 CH2          9.1951     2.6537   -16.5577 CH2           1 RES     
     369 CH2         10.1422     1.9600   -17.5544 CH2           1 RES     
     370 CH2          9.5010     1.9552   -18.9546 CH2           1 RES     
     371 CH2         10.4480     1.2615   -19.9513 CH2           1 RES     
     372 CH2          9.8068     1.2567   -21.3514 CH2           1 RES     
     373 CH2         10.7538     0.5629   -22.3482 CH2           1 RES     
     374 CH2         10.1127     0.5582   -23.7483 CH2           1 RES     
     375 CH2         11.0597    -0.1356   -24.7450 CH2           1 RES     
     376 CH2         10.4185    -0.1403   -26.1452 CH2           1 RES     
     377 CH2         11.3655    -0.8341   -27.1419 CH2           1 RES     
     378 CH3         10.7535    -0.8386   -28.4785 CH3           1 RES     
     379 CH3         16.4317    16.4317     0.0000 CH3           1 RES     
     380 CH3         14.5148    17.6467     0.6184 CH3           1 RES     
     381 CH3         16.4524    18.0356     1.5551 CH3           1 RES     
     382 NL          15.8421    17.6565     0.4440 NL            1 RES     
     383 CH2         16.2041    18.6625    -0.4478 CH2           1 RES     
     384 CH2         15.4802    18.1925    -1.7232 CH2           1 RES     
     385 OA          15.7438    19.1523    -2.8252 OA            1 RES     
     386 P           14.6019    20.2724    -2.7890 P             1 RES     
     387 OM          13.2098    19.5217    -3.0315 OM            1 RES     
     388 OM          14.7215    21.0095    -1.3740 OM            1 RES     
     389 OA          14.8520    21.3283    -3.9649 OA            1 RES     
     390 CH2         13.7762    22.3499    -3.9007 CH2           1 RES     
     391 CH1         13.4860    22.8683    -5.1222 CH1           1 RES     
     392 OE          12.1852    22.2149    -4.9176 OE            1 RES     
     393 C           11.2802    21.7621    -6.0248 C             1 RES     
     394 O           10.4886    20.8247    -5.9382 O             1 RES     
     395 CH2         11.7300    22.5115    -7.1252 CH2           1 RES     
     396 CH2         10.8869    21.9370    -8.2787 CH2           1 RES     
     397 CH2         11.3741    22.5272    -9.6151 CH2           1 RES     
     398 CH2         10.5310    21.9527   -10.7687 CH2           1 RES     
     399 CH2         11.0183    22.5430   -12.1050 CH2           1 RES     
     400 CH2         10.1752    21.9685   -13.2586 CH2           1 RES     
     401 CH2         10.6625    22.5587   -14.5949 CH2           1 RES     
     402 CH2          9.8194    21.9842   -15.7485 CH2           1 RES     
     403 CH2         10.3067    22.5745   -17.0848 CH2           1 RES     
     404 CH2          9.4636    22.0000   -18.2384 CH2           1 RES     
     405 CH2          9.9509    22.5903   -19.5747 CH2           1 RES     
     406 CH2          9.1078    22.0158   -20.7283 CH2           1 RES     
     407 CH2          9.5950    22.6060   -22.0646 CH2           1 RES     
     408 CH2          8.7519    22.0315   -23.2182 CH2           1 RES     
     409 CH2          9.2392    22.6218   -24.5545 CH2           1 RES     
     410 CH2          8.3961    22.0473   -25.7081 CH2           1 RES     
     411 CH3          8.8612    22.6107   -26.9837 CH3           1 RES     
     412 CH2         14.2825    22.1017    -6.1944 CH2           1 RES     
     413 OE          13.3158    21.8462    -7.2642 OE            1 RES     
     414 C           14.2248    21.1127    -8.2054 C             1 RES     
     415 O           15.4123    20.8788    -7.9865 O             1 RES     
     416 CH2         13.4435    20.9915    -9.3670 CH2           1 RES     
     417 CH2         14.4348    20.3626   -10.3637 CH2           1 RES     
     418 CH2         13.7953    20.3150   -11.7639 CH2           1 RES     
     419 CH2         14.7866    19.6860   -12.7606 CH2           1 RES     
     420 CH2         14.1471    19.6384   -14.1608 CH2           1 RES     
     421 CH2         15.1384    19.0095   -15.1575 CH2           1 RES     
     422 CH2         14.4990    18.9619   -16.5577 CH2           1 RES     
     423 CH2         15.4902    18.3330   -17.5544 CH2           1 RES     
     424 CH2         14.8508    18.2854   -18.9546 CH2           1 RES     
     425 CH2         15.8421    17.6565   -19.9513 CH2           1 RES     
     426 CH2         15.2026    17.6089   -21.3514 CH2           1 RES     
     427 CH2         16.1939    16.9800   -22.3482 CH2           1 RES     
     428 CH2         15.5545    16.9324   -23.7483 CH2           1 RES     
     429 CH2         16.5457    16.3034   -24.7450 CH2           1 RES     
     430 CH2         15.9063    16.2558   -26.1452 CH2           1 RES     
     431 CH2         16.8976    15.6269   -27.1419 CH2           1 RES     
     432 CH3         16.2872    15.5815   -28.4785 CH3           1 RES     
     433 CH3          5.4772    16.4317     0.0000 CH3           1 RES     
     434 CH3          3.5944    17.6989     0.6184 CH3           1 RES     
     435 CH3          5.5420    18.0344     1.5551 CH3           1 RES     
     436 NL           4.9215    17.6722     0.4440 NL            1 RES     
     437 CH2          5.3111    18.6679    -0.4478 CH2           1 RES     
     438 CH2          4.5744    18.2179    -1.7232 CH2           1 RES     
     439 OA           4.8644    19.1702    -2.8252 OA            1 RES     
     440 P            3.7536    20.3212    -2.7890 P             1 RES     
     441 OM           2.3415    19.6091    -3.0315 OM            1 RES     
     442 OM           3.8935    21.0547    -1.3740 OM            1 RES     
     443 OA           4.0326    21.3698    -3.9649 OA            1 RES     
     444 CH2          2.9853    22.4206    -3.9007 CH2           1 RES     
     445 CH1          2.7095    22.9467    -5.1222 CH1           1 RES     
     446 OE           1.3912    22.3293    -4.9176 OE            1 RES     
     447 C            0.4741    21.9016    -6.0248 C             1 RES     
     448 O           -0.3430    20.9863    -5.9382 O             1 RES     
     449 CH2          0.9443    22.6383    -7.1252 CH2           1 RES     
     450 CH2          0.0857    22.0872    -8.2787 CH2           1 RES     
     451 CH2          0.5890    22.6638    -9.6151 CH2           1 RES     
     452 CH2         -0.2695    22.1127   -10.7687 CH2           1 RES     
     453 CH2          0.2338    22.6894   -12.1050 CH2           1 RES     
     454 CH2         -0.6248    22.1383   -13.2586 CH2           1 RES     
     455 CH2         -0.1215    22.7149   -14.5949 CH2           1 RES     
     456 CH2         -0.9800    22.1638   -15.7485 CH2           1 RES     
     457 CH2         -0.4767    22.7404   -17.0848 CH2           1 RES     
     458 CH2         -1.3353    22.1893   -18.2384 CH2           1 RES     
     459 CH2         -0.8320    22.7660   -19.5747 CH2           1 RES     
     460 CH2         -1.6905    22.2148   -20.7283 CH2           1 RES     
     461 CH2         -1.1872    22.7915   -22.0646 CH2           1 RES     
     462 CH2         -2.0458    22.2404   -23.2182 CH2           1 RES     
     463 CH2         -1.5425    22.8170   -24.5545 CH2           1 RES     
     464 CH2         -2.4010    22.2659   -25.7081 CH2           1 RES     
     465 CH3         -1.9206    22.8163   -26.9837 CH3           1 RES     
     466 CH2          3.4846    22.1586    -6.1944 CH2           1 RES     
     467 OE           2.5112    21.9297    -7.2642 OE            1 RES     
     468 C            3.3997    21.1715    -8.2054 C             1 RES     
     469 O            4.5804    20.9051    -7.9865 O             1 RES     
     470 CH2          2.6154    21.0718    -9.3670 CH2           1 RES     
     471 CH2          3.5890    20.4159   -10.3637 CH2           1 RES     
     472 CH2          2.9485    20.3859   -11.7639 CH2           1 RES     
     473 CH2          3.9221    19.7300   -12.7606 CH2           1 RES     
     474 CH2          3.2816    19.7000   -14.1608 CH2           1 RES     
     475 CH2          4.2553    19.0441   -15.1575 CH2           1 RES     
     476 CH2          3.6148    19.0141   -16.5577 CH2           1 RES     
     477 CH2          4.5884    18.3581   -17.5544 CH2           1 RES     
     478 CH2          3.9479    18.3281   -18.9546 CH2           1 RES     
     479 CH2          4.9215    17.6722   -19.9513 CH2           1 RES     
     480 CH2          4.2810    17.6422   -21.3514 CH2           1 RES     
     481 CH2          5.2546    16.9863   -22.3482 CH2           1 RES     
     482 CH2          4.6141    16.9563   -23.7483 CH2           1 RES     
     483 CH2          5.5877    16.3004   -24.7450 CH2           1 RES     
     484 CH2          4.9472    16.2703   -26.1452 CH2           1 RES     
     485 CH2          5.9208    15.6144   -27.1419 CH2           1 RES     
     486 CH3          5.3094    15.5858   -28.4785 CH3           1 RES     
     487 CH3          0.0000     0.0000     0.0000 CH3           1 RES     
     488 CH3         -2.0902     0.8841     0.6184 CH3           1 RES     
     489 CH3         -0.2426     1.5856     1.5551 CH3           1 RES     
     490 NL          -0.7825     1.1115     0.4440 NL            1 RES     
     491 CH2         -0.5903     2.1633    -0.4478 CH2           1 RES     
     492 CH2         -1.2274     1.5809    -1.7232 CH2           1 RES     
     493 OA          -1.1248     2.5710    -2.8252 OA            1 RES     
     494 P           -2.4350     3.4886    -2.7890 P             1 RES     
     495 OM          -3.6850     2.5198    -3.0315 OM            1 RES     
     496 OM          -2.4378     4.2353    -1.3740 OM            1 RES     
     497 OA          -2.3614     4.5712    -3.9649 OA            1 RES     
     498 CH2         -3.5902     5.4026    -3.9007 CH2           1 RES     
     499 CH1         -3.9614     5.8663    -5.1222 CH1           1 RES     
     500 OE          -5.1375     5.0084    -4.9176 OE            1 RES     
     501 C           -5.9560     4.4133    -6.0248 C             1 RES     
     502 O           -6.5832     3.3588    -5.9382 O             1 RES     
     503 CH2         -5.6352     5.2263    -7.1252 CH2           1 RES     
     504 CH2         -6.3727     4.5213    -8.2787 CH2           1 RES     
     505 CH2         -5.9888     5.1835    -9.6151 CH2           1 RES     
     506 CH2         -6.7262     4.4785   -10.7687 CH2           1 RES     
     507 CH2         -6.3424     5.1407   -12.1050 CH2           1 RES     
     508 CH2         -7.0798     4.4357   -13.2586 CH2           1 RES     
     509 CH2         -6.6960     5.0979   -14.5949 CH2           1 RES     
     510 CH2         -7.4334     4.3929   -15.7485 CH2           1 RES     
     511 CH2         -7.0496     5.0551   -17.0848 CH2           1 RES     
     512 CH2         -7.7870     4.3501   -18.2384 CH2           1 RES     
     513 CH2         -7.4031     5.0122   -19.5747 CH2           1 RES     
     514 CH2         -8.1406     4.3073   -20.7283 CH2           1 RES     
     515 CH2         -7.7567     4.9694   -22.0646 CH2           1 RES     
     516 CH2         -8.4942     4.2644   -23.2182 CH2           1 RES     
     517 CH2         -8.1103     4.9266   -24.5545 CH2           1 RES     
     518 CH2         -8.8478     4.2216   -25.7081 CH2           1 RES     
     519 CH3         -8.4813     4.8537   -26.9837 CH3           1 RES     
     520 CH2         -3.0500     5.2408    -6.1944 CH2           1 RES     
     521 OE          -3.9618     4.8301    -7.2642 OE            1 RES     
     522 C           -2.9448     4.2557    -8.2054 C             1 RES     
     523 O           -1.7349     4.2197    -7.9865 O             1 RES     
     524 CH2         -3.6956     4.0079    -9.3670 CH2           1 RES     
     525 CH2         -2.6146     3.5501   -10.3637 CH2           1 RES     
     526 CH2         -3.2376     3.3983   -11.7639 CH2           1 RES     
     527 CH2         -2.1566     2.9405   -12.7606 CH2           1 RES     
     528 CH2         -2.7795     2.7886   -14.1608 CH2           1 RES     
     529 CH2         -1.6985     2.3308   -15.1575 CH2           1 RES     
     530 CH2         -2.3215     2.1790   -16.5577 CH2           1 RES     
     531 CH2         -1.2405     1.7212   -17.5544 CH2           1 RES     
     532 CH2         -1.8635     1.5693   -18.9546 CH2           1 RES     
     533 CH2         -0.7825     1.1115   -19.9513 CH2           1 RES     
     534 CH2         -1.4055     0.9597   -21.3514 CH2           1 RES     
     535 CH2         -0.3245     0.5019   -22.3482 CH2           1 RES     
     536 CH2         -0.9475     0.3500   -23.7483 CH2           1 RES     
     537 CH2          0.1335    -0.1078   -24.7450 CH2           1 RES     
     538 CH2         -0.4894    -0.2596   -26.1452 CH2           1 RES     
     539 CH2          0.5916    -0.7174   -27.1419 CH2           1 RES     
     540 CH3         -0.0031    -0.8624   -28.4785 CH3           1 RES     
     541 CH3         16.4317    10.9545     0.0000 CH3           1 RES     
     542 CH3         14.1684    10.7863     0.6184 CH3           1 RES     
     543 CH3         15.4917    12.2542     1.5551 CH3           1 RES     
     544 NL          15.2279    11.5858     0.4440 NL            1 RES     
     545 CH2         14.9184    12.6093    -0.4478 CH2           1 RES     
     546 CH2         14.6177    11.8002    -1.7232 CH2           1 RES     
     547 OA          14.2568    12.7278    -2.8252 OA            1 RES     
     548 P           12.6721    12.9457    -2.7890 P             1 RES     
     549 OM          12.0026    11.5129    -3.0315 OM            1 RES     
     550 OM          12.3285    13.6087    -1.3740 OM            1 RES     
     551 OA          12.2431    13.9424    -3.9649 OA            1 RES     
     552 CH2         10.7702    14.1207    -3.9007 CH2           1 RES     
     553 CH1         10.2282    14.3637    -5.1222 CH1           1 RES     
     554 OE           9.5738    13.0633    -4.9176 OE            1 RES     
     555 C            9.1175    12.1601    -6.0248 C             1 RES     
     556 O            9.0412    10.9355    -5.9382 O             1 RES     
     557 CH2          9.0315    13.0299    -7.1252 CH2           1 RES     
     558 CH2          8.6975    12.0659    -8.2787 CH2           1 RES     
     559 CH2          8.7365    12.8303    -9.6151 CH2           1 RES     
     560 CH2          8.4025    11.8663   -10.7687 CH2           1 RES     
     561 CH2          8.4415    12.6307   -12.1050 CH2           1 RES     
     562 CH2          8.1075    11.6667   -13.2586 CH2           1 RES     
     563 CH2          8.1465    12.4311   -14.5949 CH2           1 RES     
     564 CH2          7.8125    11.4671   -15.7485 CH2           1 RES     
     565 CH2          7.8515    12.2315   -17.0848 CH2           1 RES     
     566 CH2          7.5175    11.2675   -18.2384 CH2           1 RES     
     567 CH2          7.5565    12.0319   -19.5747 CH2           1 RES     
     568 CH2          7.2225    11.0679   -20.7283 CH2           1 RES     
     569 CH2          7.2615    11.8323   -22.0646 CH2           1 RES     
     570 CH2          6.9275    10.8683   -23.2182 CH2           1 RES     
     571 CH2          6.9665    11.6327   -24.5545 CH2           1 RES     
     572 CH2          6.6325    10.6687   -25.7081 CH2           1 RES     
     573 CH3          6.6698    11.3984   -26.9837 CH3           1 RES     
     574 CH2         11.3246    14.2235    -6.1944 CH2           1 RES     
     575 OE          10.7012    13.4418    -7.2642 OE            1 RES     
     576 C           11.8683    13.3952    -8.2054 C             1 RES     
     577 O           12.9609    13.9159    -7.9865 O             1 RES     
     578 CH2         11.3135    12.8319    -9.3670 CH2           1 RES     
     579 CH2         12.4842    12.9184   -10.3637 CH2           1 RES     
     580 CH2         11.9994    12.4988   -11.7639 CH2           1 RES     
     581 CH2         13.1701    12.5853   -12.7606 CH2           1 RES     
     582 CH2         12.6853    12.1656   -14.1608 CH2           1 RES     
     583 CH2         13.8561    12.2521   -15.1575 CH2           1 RES     
     584 CH2         13.3712    11.8325   -16.5577 CH2           1 RES     
     585 CH2         14.5420    11.9190   -17.5544 CH2           1 RES     
     586 CH2         14.0571    11.4994   -18.9546 CH2           1 RES     
     587 CH2         15.2279    11.5858   -19.9513 CH2           1 RES     
     588 CH2         14.7430    11.1662   -21.3514 CH2           1 RES     
     589 CH2         15.9138    11.2527   -22.3482 CH2           1 RES     
     590 CH2         15.4290    10.8331   -23.7483 CH2           1 RES     
     591 CH2         16.5997    10.9196   -24.7450 CH2           1 RES     
     592 CH2         16.1149    10.4999   -26.1452 CH2           1 RES     
     593 CH2         17.2856    10.5864   -27.1419 CH2           1 RES     
     594 CH3         16.8228    10.1859   -28.4785 CH3           1 RES     
     595 CH3         10.9545    10.9545     0.0000 CH3           1 RES     
     596 CH3          8.7475    11.4834     0.6184 CH3           1 RES     
     597 CH3         10.4548    12.4787     1.5551 CH3           1 RES     
     598 NL          10.0001    11.9224     0.4440 NL            1 RES     
     599 CH2         10.0169    12.9915    -0.4478 CH2           1 RES     
     600 CH2          9.4841    12.3124    -1.7232 CH2           1 RES     
     601 OA           9.4228    13.3059    -2.8252 OA            1 RES     
     602 P            7.9798    13.9959    -2.7890 P             1 RES     
     603 OM           6.9057    12.8350    -3.0315 OM            1 RES     
     604 OM           7.8543    14.7320    -1.3740 OM            1 RES     
     605 OA           7.8746    15.0759    -3.9649 OA            1 RES     
     606 CH2          6.5260    15.6943    -3.9007 CH2           1 RES     
     607 CH1          6.0836    16.0907    -5.1222 CH1           1 RES     
     608 OE           5.0644    15.0514    -4.9176 OE            1 RES     
     609 C            4.3547    14.3300    -6.0248 C             1 RES     
     610 O            3.9092    13.1868    -5.9382 O             1 RES     
     611 CH2          4.5376    15.1846    -7.1252 CH2           1 RES     
     612 CH2          3.9259    14.3681    -8.2787 CH2           1 RES     
     613 CH2          4.1959    15.0843    -9.6151 CH2           1 RES     
     614 CH2          3.5842    14.2678   -10.7687 CH2           1 RES     
     615 CH2          3.8541    14.9841   -12.1050 CH2           1 RES     
     616 CH2          3.2424    14.1676   -13.2586 CH2           1 RES     
     617 CH2          3.5124    14.8838   -14.5949 CH2           1 RES     
     618 CH2          2.9007    14.0673   -15.7485 CH2           1 RES     
     619 CH2          3.1706    14.7835   -17.0848 CH2           1 RES     
     620 CH2          2.5589    13.9670   -18.2384 CH2           1 RES     
     621 CH2          2.8288    14.6832   -19.5747 CH2           1 RES     
     622 CH2          2.2171    13.8667   -20.7283 CH2           1 RES     
     623 CH2          2.4871    14.5829   -22.0646 CH2           1 RES     
     624 CH2          1.8754    13.7664   -23.2182 CH2           1 RES     
     625 CH2          2.1453    14.4826   -24.5545 CH2           1 RES     
     626 CH2          1.5336    13.6661   -25.7081 CH2           1 RES     
     627 CH3          1.7913    14.3498   -26.9837 CH3           1 RES     
     628 CH2          7.0853    15.6233    -6.1944 CH2           1 RES     
     629 OE           6.2534    15.0686    -7.2642 OE            1 RES     
     630 C            7.3509    14.6689    -8.2054 C             1 RES     
     631 O            8.5503    14.8321    -7.9865 O             1 RES     
     632 CH2          6.6510    14.3012    -9.3670 CH2           1 RES     
     633 CH2          7.7925    14.0271   -10.3637 CH2           1 RES     
     634 CH2          7.2029    13.7751   -11.7639 CH2           1 RES     
     635 CH2          8.3444    13.5009   -12.7606 CH2           1 RES     
     636 CH2          7.7548    13.2489   -14.1608 CH2           1 RES     
     637 CH2          8.8963    12.9748   -15.1575 CH2           1 RES     
     638 CH2          8.3067    12.7227   -16.5577 CH2           1 RES     
     639 CH2          9.4482    12.4486   -17.5544 CH2           1 RES     
     640 CH2          8.8586    12.1965   -18.9546 CH2           1 RES     
     641 CH2         10.0001    11.9224   -19.9513 CH2           1 RES     
     642 CH2          9.4105    11.6704   -21.3514 CH2           1 RES     
     643 CH2         10.5520    11.3962   -22.3482 CH2           1 RES     
     644 CH2          9.9624    11.1442   -23.7483 CH2           1 RES     
     645 CH2         11.1039    10.8700   -24.7450 CH2           1 RES     
     646 CH2         10.5143    10.6180   -26.1452 CH2           1 RES     
     647 CH2         11.6558    10.3439   -27.1419 CH2           1 RES     
     648 CH3         11.0930    10.1033   -28.4785 CH3           1 RES     
     649 CH3         16.4317     5.4772     0.0000 CH3           1 RES     
     650 CH3         14.6597     6.8952     0.6184 CH3           1 RES     
     651 CH3         16.6283     7.0691     1.5551 CH3           1 RES     
     652 NL          15.9801     6.7593     0.4440 NL            1 RES     
     653 CH2         16.4503     7.7196    -0.4478 CH2           1 RES     
     654 CH2         15.6792     7.3318    -1.7232 CH2           1 RES     
     655 OA          16.0466     8.2569    -2.8252 OA            1 RES     
     656 P           15.0344     9.4956    -2.7890 P             1 RES     
     657 OM          13.5684     8.9022    -3.0315 OM            1 RES     
     658 OM          15.2343    10.2151    -1.3740 OM            1 RES     
     659 OA          15.3989    10.5176    -3.9649 OA            1 RES     
     660 CH2         14.4418    11.6512    -3.9007 CH2           1 RES     
     661 CH1         14.2102    12.1982    -5.1222 CH1           1 RES     
     662 OE          12.8456    11.6916    -4.9176 OE            1 RES     
     663 C           11.8963    11.3408    -6.0248 C             1 RES     
     664 O           11.0066    10.4960    -5.9382 O             1 RES     
     665 CH2         12.4256    12.0363    -7.1252 CH2           1 RES     
     666 CH2         11.5246    11.5578    -8.2787 CH2           1 RES     
     667 CH2         12.0737    12.0910    -9.6151 CH2           1 RES     
     668 CH2         11.1726    11.6125   -10.7687 CH2           1 RES     
     669 CH2         11.7217    12.1457   -12.1050 CH2           1 RES     
     670 CH2         10.8207    11.6672   -13.2586 CH2           1 RES     
     671 CH2         11.3698    12.2004   -14.5949 CH2           1 RES     
     672 CH2         10.4687    11.7220   -15.7485 CH2           1 RES     
     673 CH2         11.0179    12.2552   -17.0848 CH2           1 RES     
     674 CH2         10.1168    11.7767   -18.2384 CH2           1 RES     
     675 CH2         10.6659    12.3099   -19.5747 CH2           1 RES     
     676 CH2          9.7649    11.8314   -20.7283 CH2           1 RES     
     677 CH2         10.3140    12.3646   -22.0646 CH2           1 RES     
     678 CH2          9.4129    11.8861   -23.2182 CH2           1 RES     
     679 CH2          9.9620    12.4193   -24.5545 CH2           1 RES     
     680 CH2          9.0610    11.9408   -25.7081 CH2           1 RES     
     681 CH3          9.5851    12.4498   -26.9837 CH3           1 RES     
     682 CH2         14.9178    11.3489    -6.1944 CH2           1 RES     
     683 OE          13.9288    11.2010    -7.2642 OE            1 RES     
     684 C           14.7519    10.3722    -8.2054 C             1 RES     
     685 O           15.9066    10.0094    -7.9865 O             1 RES     
     686 CH2         13.9620    10.3374    -9.3670 CH2           1 RES     
     687 CH2         14.8782     9.6035   -10.3637 CH2           1 RES     
     688 CH2         14.2374     9.6264   -11.7639 CH2           1 RES     
     689 CH2         15.1537     8.8925   -12.7606 CH2           1 RES     
     690 CH2         14.5129     8.9153   -14.1608 CH2           1 RES     
     691 CH2         15.4291     8.1814   -15.1575 CH2           1 RES     
     692 CH2         14.7883     8.2043   -16.5577 CH2           1 RES     
     693 CH2         15.7046     7.4704   -17.5544 CH2           1 RES     
     694 CH2         15.0638     7.4933   -18.9546 CH2           1 RES     
     695 CH2         15.9801     6.7593   -19.9513 CH2           1 RES     
     696 CH2         15.3393     6.7822   -21.3514 CH2           1 RES     
     697 CH2         16.2555     6.0483   -22.3482 CH2           1 RES     
     698 CH2         15.6147     6.0712   -23.7483 CH2           1 RES     
     699 CH2         16.5310     5.3372   -24.7450 CH2           1 RES     
     700 CH2         15.8902     5.3601   -26.1452 CH2           1 RES     
     701 CH2         16.8064     4.6262   -27.1419 CH2           1 RES     
     702 CH3         16.1948     4.6480   -28.4785 CH3           1 RES     
     703 CH3          5.4772     0.0000     0.0000 CH3           1 RES     
     704 CH3          3.2091    -0.0800     0.6184 CH3           1 RES     
     705 CH3          4.5885     1.3353     1.5551 CH3           1 RES     
     706 NL           4.2989     0.6777     0.4440 NL            1 RES     
     707 CH2          4.0295     1.7124    -0.4478 CH2           1 RES     
     708 CH2          3.6975     0.9157    -1.7232 CH2           1 RES     
     709 OA           3.3730     1.8567    -2.8252 OA            1 RES     
     710 P            1.7980     2.1360    -2.7890 P             1 RES     
     711 OM           1.0732     0.7304    -3.0315 OM            1 RES     
     712 OM           1.4804     2.8119    -1.3740 OM            1 RES     
     713 OA           1.4081     3.1486    -3.9649 OA            1 RES     
     714 CH2         -0.0567     3.3841    -3.9007 CH2           1 RES     
     715 CH1         -0.5890     3.6480    -5.1222 CH1           1 RES     
     716 OE          -1.2934     2.3741    -4.9176 OE            1 RES     
     717 C           -1.7845     1.4893    -6.0248 C             1 RES     
     718 O           -1.9084     0.2686    -5.9382 O             1 RES     
     719 CH2         -1.8366     2.3617    -7.1252 CH2           1 RES     
     720 CH2         -2.2079     1.4115    -8.2787 CH2           1 RES     
     721 CH2         -2.1391     2.1738    -9.6151 CH2           1 RES     
     722 CH2         -2.5104     1.2235   -10.7687 CH2           1 RES     
     723 CH2         -2.4417     1.9858   -12.1050 CH2           1 RES     
     724 CH2         -2.8130     1.0356   -13.2586 CH2           1 RES     
     725 CH2         -2.7442     1.7979   -14.5949 CH2           1 RES     
     726 CH2         -3.1155     0.8476   -15.7485 CH2           1 RES     
     727 CH2         -3.0467     1.6099   -17.0848 CH2           1 RES     
     728 CH2         -3.4180     0.6596   -18.2384 CH2           1 RES     
     729 CH2         -3.3493     1.4219   -19.5747 CH2           1 RES     
     730 CH2         -3.7206     0.4717   -20.7283 CH2           1 RES     
     731 CH2         -3.6518     1.2340   -22.0646 CH2           1 RES     
     732 CH2         -4.0231     0.2837   -23.2182 CH2           1 RES     
     733 CH2         -3.9544     1.0460   -24.5545 CH2           1 RES     
     734 CH2         -4.3256     0.0957   -25.7081 CH2           1 RES     
     735 CH3         -4.2600     0.8234   -26.9837 CH3           1 RES     
     736 CH2          0.5012     3.4653    -6.1944 CH2           1 RES     
     737 OE          -0.1522     2.7084    -7.2642 OE            1 RES     
     738 C            1.0122     2.6165    -8.2054 C             1 RES     
     739 O            2.1243     3.0942    -7.9865 O             1 RES     
     740 CH2          0.4359     2.0752    -9.3670 CH2           1 RES     
     741 CH2          1.6092     2.1160   -10.3637 CH2           1 RES     
     742 CH2          1.1084     1.7156   -11.7639 CH2           1 RES     
     743 CH2          2.2816     1.7565   -12.7606 CH2           1 RES     
     744 CH2          1.7808     1.3560   -14.1608 CH2           1 RES     
     745 CH2          2.9540     1.3969   -15.1575 CH2           1 RES     
     746 CH2          2.4532     0.9965   -16.5577 CH2           1 RES     
     747 CH2          3.6265     1.0373   -17.5544 CH2           1 RES     
     748 CH2          3.1257     0.6369   -18.9546 CH2           1 RES     
     749 CH2          4.2989     0.6777   -19.9513 CH2           1 RES     
     750 CH2          3.7981     0.2773   -21.3514 CH2           1 RES     
     751 CH2          4.9713     0.3182   -22.3482 CH2           1 RES     
     752 CH2          4.4705    -0.0823   -23.7483 CH2           1 RES     
     753 CH2          5.6438    -0.0414   -24.7450 CH2           1 RES     
     754 CH2          5.1430    -0.4418   -26.1452 CH2           1 RES     
     755 CH2          6.3162    -0.4010   -27.1419 CH2           1 RES     
     756 CH3          5.8382    -0.7832   -28.4785 CH3           1 RES     
     757 CH3          0.0000    16.4317     0.0000 CH3           1 RES     
     758 CH3         -2.0271    17.4522     0.6184 CH3           1 RES     
     759 CH3         -0.1371    18.0298     1.5551 CH3           1 RES     
     760 NL          -0.7072    17.5925     0.4440 NL            1 RES     
     761 CH2         -0.4459    18.6293    -0.4478 CH2           1 RES     
     762 CH2         -1.1201    18.0903    -1.7232 CH2           1 RES     
     763 OA          -0.9521    19.0715    -2.8252 OA            1 RES     
     764 P           -2.1987    20.0738    -2.7890 P             1 RES     
     765 OM          -3.5101    19.1899    -3.0315 OM            1 RES     
     766 OM          -2.1521    20.8191    -1.3740 OM            1 RES     
     767 OA          -2.0536    21.1491    -3.9649 OA            1 RES     
     768 CH2         -3.2247    22.0600    -3.9007 CH2           1 RES     
     769 CH1         -3.5645    22.5473    -5.1222 CH1           1 RES     
     770 OE          -4.7947    21.7692    -4.9176 OE            1 RES     
     771 C           -5.6508    21.2296    -6.0248 C             1 RES     
     772 O           -6.3464    20.2188    -5.9382 O             1 RES     
     773 CH2         -5.2769    22.0195    -7.1252 CH2           1 RES     
     774 CH2         -6.0594    21.3649    -8.2787 CH2           1 RES     
     775 CH2         -5.6326    22.0002    -9.6151 CH2           1 RES     
     776 CH2         -6.4151    21.3456   -10.7687 CH2           1 RES     
     777 CH2         -5.9882    21.9809   -12.1050 CH2           1 RES     
     778 CH2         -6.7707    21.3263   -13.2586 CH2           1 RES     
     779 CH2         -6.3438    21.9616   -14.5949 CH2           1 RES     
     780 CH2         -7.1264    21.3070   -15.7485 CH2           1 RES     
     781 CH2         -6.6995    21.9423   -17.0848 CH2           1 RES     
     782 CH2         -7.4820    21.2876   -18.2384 CH2           1 RES     
     783 CH2         -7.0551    21.9230   -19.5747 CH2           1 RES     
     784 CH2         -7.8376    21.2683   -20.7283 CH2           1 RES     
     785 CH2         -7.4108    21.9036   -22.0646 CH2           1 RES     
     786 CH2         -8.1933    21.2490   -23.2182 CH2           1 RES     
     787 CH2         -7.7664    21.8843   -24.5545 CH2           1 RES     
     788 CH2         -8.5489    21.2297   -25.7081 CH2           1 RES     
     789 CH3         -8.1415    21.8361   -26.9837 CH3           1 RES     
     790 CH2         -2.6965    21.8628    -6.1944 CH2           1 RES     
     791 OE          -3.6334    21.5134    -7.2642 OE            1 RES     
     792 C           -2.6566    20.8729    -8.2054 C             1 RES     
     793 O           -1.4518    20.7570    -7.9865 O             1 RES     
     794 CH2         -3.4222    20.6754    -9.3670 CH2           1 RES     
     795 CH2         -2.3739    20.1471   -10.3637 CH2           1 RES     
     796 CH2         -3.0055    20.0368   -11.7639 CH2           1 RES     
     797 CH2         -1.9572    19.5084   -12.7606 CH2           1 RES     
     798 CH2         -2.5889    19.3982   -14.1608 CH2           1 RES     
     799 CH2         -1.5405    18.8698   -15.1575 CH2           1 RES     
     800 CH2         -2.1722    18.7595   -16.5577 CH2           1 RES     
     801 CH2         -1.1239    18.2312   -17.5544 CH2           1 RES     
     802 CH2         -1.7555    18.1209   -18.9546 CH2           1 RES     
     803 CH2         -0.7072    17.5925   -19.9513 CH2           1 RES     
     804 CH2         -1.3389    17.4823   -21.3514 CH2           1 RES     
     805 CH2         -0.2906    16.9539   -22.3482 CH2           1 RES     
     806 CH2         -0.9222    16.8437   -23.7483 CH2           1 RES     
     807 CH2          0.1261    16.3153   -24.7450 CH2           1 RES     
     808 CH2         -0.5055    16.2050   -26.1452 CH2           1 RES     
     809 CH2          0.5428    15.6766   -27.1419 CH2           1 RES     
     810 CH3         -0.0602    15.5714   -28.4785 CH3           1 RES     
     811 CH3         16.4317     0.0000     0.0000 CH3           1 RES     
     812 CH3         14.6661     1.4259     0.6184 CH3           1 RES     
     813 CH3         16.6355     1.5910     1.5551 CH3           1 RES     
     814 NL          15.9858     1.2841     0.4440 NL            1 RES     
     815 CH2         16.4604     2.2422    -0.4478 CH2           1 RES     
     816 CH2         15.6875     1.8579    -1.7232 CH2           1 RES     
     817 OA          16.0590     2.7814    -2.8252 OA            1 RES     
     818 P           15.0525     4.0246    -2.7890 P             1 RES     
     819 OM          13.5838     3.4378    -3.0315 OM            1 RES     
     820 OM          15.2555     4.7431    -1.3740 OM            1 RES     
     821 OA          15.4215     5.0450    -3.9649 OA            1 RES     
     822 CH2         14.4694     6.1828    -3.9007 CH2           1 RES     
     823 CH1         14.2404     6.7309    -5.1222 CH1           1 RES     
     824 OE          12.8734     6.2303    -4.9176 OE            1 RES     
     825 C           11.9226     5.8838    -6.0248 C             1 RES     
     826 O           11.0291     5.0430    -5.9382 O             1 RES     
     827 CH2         12.4550     6.5769    -7.1252 CH2           1 RES     
     828 CH2         11.5519     6.1025    -8.2787 CH2           1 RES     
     829 CH2         12.1033     6.6332    -9.6151 CH2           1 RES     
     830 CH2         11.2002     6.1588   -10.7687 CH2           1 RES     
     831 CH2         11.7517     6.6895   -12.1050 CH2           1 RES     
     832 CH2         10.8485     6.2151   -13.2586 CH2           1 RES     
     833 CH2         11.4000     6.7458   -14.5949 CH2           1 RES     
     834 CH2         10.4968     6.2714   -15.7485 CH2           1 RES     
     835 CH2         11.0483     6.8021   -17.0848 CH2           1 RES     
     836 CH2         10.1451     6.3277   -18.2384 CH2           1 RES     
     837 CH2         10.6966     6.8584   -19.5747 CH2           1 RES     
     838 CH2          9.7934     6.3840   -20.7283 CH2           1 RES     
     839 CH2         10.3449     6.9147   -22.0646 CH2           1 RES     
     840 CH2          9.4417     6.4402   -23.2182 CH2           1 RES     
     841 CH2          9.9932     6.9710   -24.5545 CH2           1 RES     
     842 CH2          9.0900     6.4965   -25.7081 CH2           1 RES     
     843 CH3          9.6164     7.0031   -26.9837 CH3           1 RES     
     844 CH2         14.9441     5.8784    -6.1944 CH2           1 RES     
     845 OE          13.9545     5.7349    -7.2642 OE            1 RES     
     846 C           14.7738     4.9024    -8.2054 C             1 RES     
     847 O           15.9269     4.5345    -7.9865 O             1 RES     
     848 CH2         13.9838     4.8712    -9.3670 CH2           1 RES     
     849 CH2         14.8967     4.1332   -10.3637 CH2           1 RES     
     850 CH2         14.2560     4.1589   -11.7639 CH2           1 RES     
     851 CH2         15.1690     3.4209   -12.7606 CH2           1 RES     
     852 CH2         14.5283     3.4467   -14.1608 CH2           1 RES     
     853 CH2         15.4413     2.7087   -15.1575 CH2           1 RES     
     854 CH2         14.8006     2.7344   -16.5577 CH2           1 RES     
     855 CH2         15.7135     1.9964   -17.5544 CH2           1 RES     
     856 CH2         15.0728     2.0221   -18.9546 CH2           1 RES     
     857 CH2         15.9858     1.2841   -19.9513 CH2           1 RES     
     858 CH2         15.3451     1.3099   -21.3514 CH2           1 RES     
     859 CH2         16.2581     0.5718   -22.3482 CH2           1 RES     
     860 CH2         15.6174     0.5976   -23.7483 CH2           1 RES     
     861 CH2         16.5303    -0.1404   -24.7450 CH2           1 RES     
     862 CH2         15.8896    -0.1147   -26.1452 CH2           1 RES     
     863 CH2         16.8026    -0.8527   -27.1419 CH2           1 RES     
     864 CH3         16.1910    -0.8281   -28.4785 CH3           1 RES     
     865 CH3          2.6675     5.4772   -57.6374 CH3           1 RES     
     866 CH3          4.8341     6.1529   -58.2559 CH3           1 RES     
     867 CH3          3.0638     7.0315   -59.1925 CH3           1 RES     
     868 NL           3.5548     6.5070   -58.0814 NL            1 RES     
     869 CH2          3.4664     7.5725   -57.1896 CH2           1 RES     
     870 CH2          4.0435     6.9306   -55.9142 CH2           1 RES     
     871 OA           4.0380     7.9260   -54.8122 OA            1 RES     
     872 P            5.4316     8.7113   -54.8484 P             1 RES     
     873 OM           6.5810     7.6250   -54.6060 OM            1 RES     
     874 OM           5.5074     9.4541   -56.2634 OM            1 RES     
     875 OA           5.4642     9.7959   -53.6725 OA            1 RES     
     876 CH2          6.7683    10.5032   -53.7367 CH2           1 RES     
     877 CH1          7.1831    10.9285   -52.5152 CH1           1 RES     
     878 OE           8.2697     9.9598   -52.7198 OE            1 RES     
     879 C            9.0261     9.2876   -51.6126 C             1 RES     
     880 O            9.5473     8.1769   -51.6992 O             1 RES     
     881 CH2          8.7863    10.1281   -50.5123 CH2           1 RES     
     882 CH2          9.4514     9.3544   -49.3587 CH2           1 RES     
     883 CH2          9.1340    10.0509   -48.0223 CH2           1 RES     
     884 CH2          9.7991     9.2773   -46.8688 CH2           1 RES     
     885 CH2          9.4817     9.9738   -45.5324 CH2           1 RES     
     886 CH2         10.1468     9.2001   -44.3789 CH2           1 RES     
     887 CH2          9.8294     9.8966   -43.0425 CH2           1 RES     
     888 CH2         10.4945     9.1230   -41.8889 CH2           1 RES     
     889 CH2         10.1772     9.8195   -40.5526 CH2           1 RES     
     890 CH2         10.8422     9.0458   -39.3990 CH2           1 RES     
     891 CH2         10.5249     9.7423   -38.0627 CH2           1 RES     
     892 CH2         11.1899     8.9687   -36.9091 CH2           1 RES     
     893 CH2         10.8726     9.6652   -35.5728 CH2           1 RES     
     894 CH2         11.5376     8.8915   -34.4192 CH2           1 RES     
     895 CH2         11.2203     9.5880   -33.0829 CH2           1 RES     
     896 CH2         11.8854     8.8144   -31.9293 CH2           1 RES     
     897 CH3         11.5824     9.4792   -30.6537 CH3           1 RES     
     898 CH2          6.2149    10.3950   -51.4430 CH2           1 RES     
     899 OE           7.0822     9.8972   -50.3732 OE            1 RES     
     900 C            6.0139     9.4249   -49.4321 C             1 RES     
     901 O            4.8063     9.5073   -49.6510 O             1 RES     
     902 CH2          6.7369     9.1050   -48.2704 CH2           1 RES     
     903 CH2          5.6164     8.7550   -47.2737 CH2           1 RES     
     904 CH2          6.2216     8.5430   -45.8735 CH2           1 RES     
     905 CH2          5.1010     8.1930   -44.8768 CH2           1 RES     
     906 CH2          5.7062     7.9810   -43.4766 CH2           1 RES     
     907 CH2          4.5856     7.6310   -42.4799 CH2           1 RES     
     908 CH2          5.1908     7.4190   -41.0797 CH2           1 RES     
     909 CH2          4.0702     7.0690   -40.0830 CH2           1 RES     
     910 CH2          4.6754     6.8570   -38.6829 CH2           1 RES     
     911 CH2          3.5548     6.5070   -37.6861 CH2           1 RES     
     912 CH2          4.1600     6.2950   -36.2860 CH2           1 RES     
     913 CH2          3.0395     5.9450   -35.2893 CH2           1 RES     
     914 CH2          3.6446     5.7330   -33.8891 CH2           1 RES     
     915 CH2          2.5241     5.3830   -32.8924 CH2           1 RES     
     916 CH2          3.1292     5.1710   -31.4922 CH2           1 RES     
     917 CH2          2.0087     4.8210   -30.4955 CH2           1 RES     
     918 CH3          2.5863     4.6187   -29.1590 CH3           1 RES     
     919 CH3          8.1447     5.4772   -57.6374 CH3           1 RES     
     920 CH3         10.1746     6.4923   -58.2559 CH3           1 RES     
     921 CH3          8.2862     7.0750   -59.1925 CH3           1 RES     
     922 NL           8.8551     6.6362   -58.0814 NL            1 RES     
     923 CH2          8.5966     7.6736   -57.1896 CH2           1 RES     
     924 CH2          9.2693     7.1328   -55.9142 CH2           1 RES     
     925 OA           9.1040     8.1144   -54.8122 OA            1 RES     
     926 P           10.3533     9.1134   -54.8484 P             1 RES     
     927 OM          11.6624     8.2259   -54.6060 OM            1 RES     
     928 OM          10.3088     9.8588   -56.2634 OM            1 RES     
     929 OA          10.2112    10.1891   -53.6725 OA            1 RES     
     930 CH2         11.3847    11.0968   -53.7367 CH2           1 RES     
     931 CH1         11.7258    11.5832   -52.5152 CH1           1 RES     
     932 OE          12.9539    10.8017   -52.7198 OE            1 RES     
     933 C           13.8085    10.2597   -51.6126 C             1 RES     
     934 O           14.5014     9.2471   -51.6992 O             1 RES     
     935 CH2         13.4368    11.0507   -50.5123 CH2           1 RES     
     936 CH2         14.2175    10.3940   -49.3587 CH2           1 RES     
     937 CH2         13.7924    11.0304   -48.0223 CH2           1 RES     
     938 CH2         14.5731    10.3737   -46.8688 CH2           1 RES     
     939 CH2         14.1480    11.0102   -45.5324 CH2           1 RES     
     940 CH2         14.9287    10.3534   -44.3789 CH2           1 RES     
     941 CH2         14.5036    10.9899   -43.0425 CH2           1 RES     
     942 CH2         15.2843    10.3331   -41.8889 CH2           1 RES     
     943 CH2         14.8592    10.9696   -40.5526 CH2           1 RES     
     944 CH2         15.6399    10.3129   -39.3990 CH2           1 RES     
     945 CH2         15.2148    10.9493   -38.0627 CH2           1 RES     
     946 CH2         15.9955    10.2926   -36.9091 CH2           1 RES     
     947 CH2         15.5704    10.9290   -35.5728 CH2           1 RES     
     948 CH2         16.3511    10.2723   -34.4192 CH2           1 RES     
     949 CH2         15.9259    10.9088   -33.0829 CH2           1 RES     
     950 CH2         16.7067    10.2520   -31.9293 CH2           1 RES     
     951 CH3         16.3009    10.8595   -30.6537 CH3           1 RES     
     952 CH2         10.8559    10.9011   -51.4430 CH2           1 RES     
     953 OE          11.7919    10.5491   -50.3732 OE            1 RES     
     954 C           10.8134     9.9112   -49.4321 C             1 RES     
     955 O            9.6083     9.7986   -49.6510 O             1 RES     
     956 CH2         11.5784     9.7117   -48.2704 CH2           1 RES     
     957 CH2         10.5287     9.1862   -47.2737 CH2           1 RES     
     958 CH2         11.1600     9.0742   -45.8735 CH2           1 RES     
     959 CH2         10.1103     8.5487   -44.8768 CH2           1 RES     
     960 CH2         10.7416     8.4367   -43.4766 CH2           1 RES     
     961 CH2          9.6919     7.9112   -42.4799 CH2           1 RES     
     962 CH2         10.3232     7.7992   -41.0797 CH2           1 RES     
     963 CH2          9.2735     7.2737   -40.0830 CH2           1 RES     
     964 CH2          9.9048     7.1617   -38.6829 CH2           1 RES     
     965 CH2          8.8551     6.6362   -37.6861 CH2           1 RES     
     966 CH2          9.4864     6.5242   -36.2860 CH2           1 RES     
     967 CH2          8.4367     5.9987   -35.2893 CH2           1 RES     
     968 CH2          9.0681     5.8867   -33.8891 CH2           1 RES     
     969 CH2          8.0183     5.3612   -32.8924 CH2           1 RES     
     970 CH2          8.6497     5.2492   -31.4922 CH2           1 RES     
     971 CH2          7.5999     4.7237   -30.4955 CH2           1 RES     
     972 CH3          8.2026     4.6168   -29.1590 CH3           1 RES     
     973 CH3          8.1447    10.9545   -57.6374 CH3           1 RES     
     974 CH3         10.4140    10.9875   -58.2559 CH3           1 RES     
     975 CH3          8.9659    12.3324   -59.1925 CH3           1 RES     
     976 NL           9.2878    11.6900   -58.0814 NL            1 RES     
     977 CH2          9.5054    12.7369   -57.1896 CH2           1 RES     
     978 CH2          9.8766    11.9576   -55.9142 CH2           1 RES     
     979 OA          10.1539    12.9136   -54.8122 OA            1 RES     
     980 P           11.7130    13.2710   -54.8484 P             1 RES     
     981 OM          12.5069    11.9032   -54.6060 OM            1 RES     
     982 OM          11.9965    13.9618   -56.2634 OM            1 RES     
     983 OA          12.0521    14.3018   -53.6725 OA            1 RES     
     984 CH2         13.5033    14.6100   -53.7367 CH2           1 RES     
     985 CH1         14.0217    14.9000   -52.5152 CH1           1 RES     
     986 OE          14.7888    13.6628   -52.7198 OE            1 RES     
     987 C           15.3233    12.8035   -51.6126 C             1 RES     
     988 O           15.5078    11.5905   -51.6992 O             1 RES     
     989 CH2         15.3319    13.6775   -50.5123 CH2           1 RES     
     990 CH2         15.7500    12.7469   -49.3587 CH2           1 RES     
     991 CH2         15.6434    13.5048   -48.0223 CH2           1 RES     
     992 CH2         16.0615    12.5742   -46.8688 CH2           1 RES     
     993 CH2         15.9549    13.3321   -45.5324 CH2           1 RES     
     994 CH2         16.3731    12.4015   -44.3789 CH2           1 RES     
     995 CH2         16.2664    13.1595   -43.0425 CH2           1 RES     
     996 CH2         16.6846    12.2289   -41.8889 CH2           1 RES     
     997 CH2         16.5780    12.9868   -40.5526 CH2           1 RES     
     998 CH2         16.9961    12.0562   -39.3990 CH2           1 RES     
     999 CH2         16.8895    12.8141   -38.0627 CH2           1 RES     
    1000 CH2         17.3076    11.8835   -36.9091 CH2           1 RES     
    1001 CH2         17.2010    12.6415   -35.5728 CH2           1 RES     
    1002 CH2         17.6191    11.7109   -34.4192 CH2           1 RES     
    1003 CH2         17.5125    12.4688   -33.0829 CH2           1 RES     
    1004 CH2         17.9307    11.5382   -31.9293 CH2           1 RES     
    1005 CH3         17.8289    12.2617   -30.6537 CH3           1 RES     
    1006 CH2         12.9420    14.6632   -51.4430 CH2           1 RES     
    1007 OE          13.6323    13.9398   -50.3732 OE            1 RES     
    1008 C           12.4739    13.7900   -49.4321 C             1 RES     
    1009 O           11.3394    14.2118   -49.6510 O             1 RES     
    1010 CH2         13.0764    13.2781   -48.2704 CH2           1 RES     
    1011 CH2         11.9026    13.2605   -47.2737 CH2           1 RES     
    1012 CH2         12.4227    12.8855   -45.8735 CH2           1 RES     
    1013 CH2         11.2489    12.8679   -44.8768 CH2           1 RES     
    1014 CH2         11.7690    12.4929   -43.4766 CH2           1 RES     
    1015 CH2         10.5952    12.4752   -42.4799 CH2           1 RES     
    1016 CH2         11.1153    12.1003   -41.0797 CH2           1 RES     
    1017 CH2          9.9415    12.0826   -40.0830 CH2           1 RES     
    1018 CH2         10.4617    11.7076   -38.6829 CH2           1 RES     
    1019 CH2          9.2878    11.6900   -37.6861 CH2           1 RES     
    1020 CH2          9.8080    11.3150   -36.2860 CH2           1 RES     
    1021 CH2          8.6341    11.2974   -35.2893 CH2           1 RES     
    1022 CH2          9.1543    10.9224   -33.8891 CH2           1 RES     
    1023 CH2          7.9805    10.9048   -32.8924 CH2           1 RES     
    1024 CH2          8.5006    10.5298   -31.4922 CH2           1 RES     
    1025 CH2          7.3268    10.5122   -30.4955 CH2           1 RES     
    1026 CH3          7.8232    10.1542   -29.1590 CH3           1 RES     
    1027 CH3         -2.8097    16.4317   -57.6374 CH3           1 RES     
    1028 CH3         -0.6558    17.1468   -58.2559 CH3           1 RES     
    1029 CH3         -2.4418    17.9929   -59.1925 CH3           1 RES     
    1030 NL          -1.9413    17.4774   -58.0814 NL            1 RES     
    1031 CH2         -2.0492    18.5412   -57.1896 CH2           1 RES     
    1032 CH2         -1.4605    17.9099   -55.9142 CH2           1 RES     
    1033 OA          -1.4841    18.9051   -54.8122 OA            1 RES     
    1034 P           -0.1050    19.7156   -54.8484 P             1 RES     
    1035 OM           1.0640    18.6504   -54.6060 OM            1 RES     
    1036 OM          -0.0428    20.4597   -56.2634 OM            1 RES     
    1037 OA          -0.0922    20.8006   -53.6725 OA            1 RES     
    1038 CH2          1.1988    21.5316   -53.7367 CH2           1 RES     
    1039 CH1          1.6057    21.9643   -52.5152 CH1           1 RES     
    1040 OE           2.7098    21.0156   -52.7198 OE            1 RES     
    1041 C            3.4784    20.3573   -51.6126 C             1 RES     
    1042 O            4.0197    19.2563   -51.6992 O             1 RES     
    1043 CH2          3.2233    21.1933   -50.5123 CH2           1 RES     
    1044 CH2          3.9023    20.4319   -49.3587 CH2           1 RES     
    1045 CH2          3.5724    21.1225   -48.0223 CH2           1 RES     
    1046 CH2          4.2514    20.3611   -46.8688 CH2           1 RES     
    1047 CH2          3.9214    21.0517   -45.5324 CH2           1 RES     
    1048 CH2          4.6005    20.2903   -44.3789 CH2           1 RES     
    1049 CH2          4.2705    20.9809   -43.0425 CH2           1 RES     
    1050 CH2          4.9495    20.2195   -41.8889 CH2           1 RES     
    1051 CH2          4.6195    20.9101   -40.5526 CH2           1 RES     
    1052 CH2          5.2986    20.1487   -39.3990 CH2           1 RES     
    1053 CH2          4.9686    20.8393   -38.0627 CH2           1 RES     
    1054 CH2          5.6477    20.0779   -36.9091 CH2           1 RES     
    1055 CH2          5.3177    20.7685   -35.5728 CH2           1 RES     
    1056 CH2          5.9967    20.0071   -34.4192 CH2           1 RES     
    1057 CH2          5.6667    20.6977   -33.0829 CH2           1 RES     
    1058 CH2          6.3458    19.9363   -31.9293 CH2           1 RES     
    1059 CH3          6.0308    20.5955   -30.6537 CH3           1 RES     
    1060 CH2          0.6475    21.4133   -51.4430 CH2           1 RES     
    1061 OE           1.5236    20.9314   -50.3732 OE            1 RES     
    1062 C            0.4642    20.4396   -49.4321 C             1 RES     
    1063 O           -0.7447    20.5001   -49.6510 O             1 RES     
    1064 CH2          1.1929    20.1330   -48.2704 CH2           1 RES     
    1065 CH2          0.0789    19.7626   -47.2737 CH2           1 RES     
    1066 CH2          0.6879    19.5617   -45.8735 CH2           1 RES     
    1067 CH2         -0.4261    19.1913   -44.8768 CH2           1 RES     
    1068 CH2          0.1828    18.9904   -43.4766 CH2           1 RES     
    1069 CH2         -0.9312    18.6200   -42.4799 CH2           1 RES     
    1070 CH2         -0.3223    18.4191   -41.0797 CH2           1 RES     
    1071 CH2         -1.4362    18.0487   -40.0830 CH2           1 RES     
    1072 CH2         -0.8273    17.8478   -38.6829 CH2           1 RES     
    1073 CH2         -1.9413    17.4774   -37.6861 CH2           1 RES     
    1074 CH2         -1.3324    17.2765   -36.2860 CH2           1 RES     
    1075 CH2         -2.4464    16.9061   -35.2893 CH2           1 RES     
    1076 CH2         -1.8374    16.7052   -33.8891 CH2           1 RES     
    1077 CH2         -2.9514    16.3348   -32.8924 CH2           1 RES     
    1078 CH2         -2.3425    16.1339   -31.4922 CH2           1 RES     
    1079 CH2         -3.4565    15.7636   -30.4955 CH2           1 RES     
    1080 CH3         -2.8752    15.5718   -29.1590 CH3           1 RES     
    1081 CH3         -2.8097     5.4772   -57.6374 CH3           1 RES     
    1082 CH3         -0.5429     5.3664   -58.2559 CH3           1 RES     
    1083 CH3         -1.9029     6.8003   -59.1925 CH3           1 RES     
    1084 NL          -1.6223     6.1389   -58.0814 NL            1 RES     
    1085 CH2         -1.3389     7.1698   -57.1896 CH2           1 RES     
    1086 CH2         -1.0177     6.3686   -55.9142 CH2           1 RES     
    1087 OA          -0.6805     7.3051   -54.8122 OA            1 RES     
    1088 P            0.8982     7.5631   -54.8484 P             1 RES     
    1089 OM           1.6038     6.1477   -54.6060 OM            1 RES     
    1090 OM           1.2249     8.2345   -56.2634 OM            1 RES     
    1091 OA           1.3018     8.5703   -53.6725 OA            1 RES     
    1092 CH2          2.7697     8.7859   -53.7367 CH2           1 RES     
    1093 CH1          3.3055     9.0425   -52.5152 CH1           1 RES     
    1094 OE           3.9926     7.7591   -52.7198 OE            1 RES     
    1095 C            4.4716     6.8677   -51.6126 C             1 RES     
    1096 O            4.5789     5.6455   -51.6992 O             1 RES     
    1097 CH2          4.5355     7.7394   -50.5123 CH2           1 RES     
    1098 CH2          4.8939     6.7842   -49.3587 CH2           1 RES     
    1099 CH2          4.8355     7.5473   -48.0223 CH2           1 RES     
    1100 CH2          5.1938     6.5921   -46.8688 CH2           1 RES     
    1101 CH2          5.1354     7.3553   -45.5324 CH2           1 RES     
    1102 CH2          5.4938     6.4001   -44.3789 CH2           1 RES     
    1103 CH2          5.4354     7.1632   -43.0425 CH2           1 RES     
    1104 CH2          5.7937     6.2080   -41.8889 CH2           1 RES     
    1105 CH2          5.7353     6.9712   -40.5526 CH2           1 RES     
    1106 CH2          6.0937     6.0160   -39.3990 CH2           1 RES     
    1107 CH2          6.0353     6.7791   -38.0627 CH2           1 RES     
    1108 CH2          6.3936     5.8239   -36.9091 CH2           1 RES     
    1109 CH2          6.3352     6.5871   -35.5728 CH2           1 RES     
    1110 CH2          6.6936     5.6318   -34.4192 CH2           1 RES     
    1111 CH2          6.6352     6.3950   -33.0829 CH2           1 RES     
    1112 CH2          6.9935     5.4398   -31.9293 CH2           1 RES     
    1113 CH3          6.9378     6.1683   -30.6537 CH3           1 RES     
    1114 CH2          2.2129     8.8746   -51.4430 CH2           1 RES     
    1115 OE           2.8560     8.1089   -50.3732 OE            1 RES     
    1116 C            1.6904     8.0328   -49.4321 C             1 RES     
    1117 O            0.5849     8.5256   -49.6510 O             1 RES     
    1118 CH2          2.2593     7.4837   -48.2704 CH2           1 RES     
    1119 CH2          1.0867     7.5405   -47.2737 CH2           1 RES     
    1120 CH2          1.5820     7.1333   -45.8735 CH2           1 RES     
    1121 CH2          0.4095     7.1901   -44.8768 CH2           1 RES     
    1122 CH2          0.9048     6.7829   -43.4766 CH2           1 RES     
    1123 CH2         -0.2678     6.8397   -42.4799 CH2           1 RES     
    1124 CH2          0.2275     6.4325   -41.0797 CH2           1 RES     
    1125 CH2         -0.9450     6.4893   -40.0830 CH2           1 RES     
    1126 CH2         -0.4497     6.0821   -38.6829 CH2           1 RES     
    1127 CH2         -1.6223     6.1389   -37.6861 CH2           1 RES     
    1128 CH2         -1.1270     5.7317   -36.2860 CH2           1 RES     
    1129 CH2         -2.2996     5.7885   -35.2893 CH2           1 RES     
    1130 CH2         -1.8042     5.3813   -33.8891 CH2           1 RES     
    1131 CH2         -2.9768     5.4381   -32.8924 CH2           1 RES     
    1132 CH2         -2.4815     5.0309   -31.4922 CH2           1 RES     
    1133 CH2         -3.6541     5.0877   -30.4955 CH2           1 RES     
    1134 CH3         -3.1813     4.6990   -29.1590 CH3           1 RES     
    1135 CH3          2.6675    10.9545   -57.6374 CH3           1 RES     
    1136 CH3          4.8877    10.4841   -58.2559 CH3           1 RES     
    1137 CH3          3.7734    12.1163   -59.1925 CH3           1 RES     
    1138 NL           3.9451    11.4186   -58.0814 NL            1 RES     
    1139 CH2          4.3892    12.3912   -57.1896 CH2           1 RES     
    1140 CH2          4.5786    11.5491   -55.9142 CH2           1 RES     
    1141 OA           5.0607    12.4199   -54.8122 OA            1 RES     
    1142 P            6.6603    12.4232   -54.8484 P             1 RES     
    1143 OM           7.1315    10.9135   -54.6060 OM            1 RES     
    1144 OM           7.0897    13.0340   -56.2634 OM            1 RES     
    1145 OA           7.2192    13.3532   -53.6725 OA            1 RES     
    1146 CH2          8.7026    13.3323   -53.7367 CH2           1 RES     
    1147 CH1          9.2724    13.5003   -52.5152 CH1           1 RES     
    1148 OE           9.7464    12.1239   -52.7198 OE            1 RES     
    1149 C           10.0773    11.1676   -51.6126 C             1 RES     
    1150 O            9.9886     9.9439   -51.6992 O             1 RES     
    1151 CH2         10.2793    12.0180   -50.5123 CH2           1 RES     
    1152 CH2         10.4809    11.0179   -49.3587 CH2           1 RES     
    1153 CH2         10.5448    11.7806   -48.0223 CH2           1 RES     
    1154 CH2         10.7464    10.7805   -46.8688 CH2           1 RES     
    1155 CH2         10.8103    11.5432   -45.5324 CH2           1 RES     
    1156 CH2         11.0120    10.5431   -44.3789 CH2           1 RES     
    1157 CH2         11.0759    11.3059   -43.0425 CH2           1 RES     
    1158 CH2         11.2775    10.3058   -41.8889 CH2           1 RES     
    1159 CH2         11.3414    11.0685   -40.5526 CH2           1 RES     
    1160 CH2         11.5431    10.0684   -39.3990 CH2           1 RES     
    1161 CH2         11.6070    10.8311   -38.0627 CH2           1 RES     
    1162 CH2         11.8086     9.8310   -36.9091 CH2           1 RES     
    1163 CH2         11.8725    10.5937   -35.5728 CH2           1 RES     
    1164 CH2         12.0741     9.5937   -34.4192 CH2           1 RES     
    1165 CH2         12.1380    10.3564   -33.0829 CH2           1 RES     
    1166 CH2         12.3397     9.3563   -31.9293 CH2           1 RES     
    1167 CH3         12.4007    10.0843   -30.6537 CH3           1 RES     
    1168 CH2          8.1670    13.5086   -51.4430 CH2           1 RES     
    1169 OE           8.6800    12.6502   -50.3732 OE            1 RES     
    1170 C            7.5172    12.7607   -49.4321 C             1 RES     
    1171 O            6.5043    13.4233   -49.6510 O             1 RES     
    1172 CH2          7.9914    12.1281   -48.2704 CH2           1 RES     
    1173 CH2          6.8428    12.3709   -47.2737 CH2           1 RES     
    1174 CH2          7.2670    11.8900   -45.8735 CH2           1 RES     
    1175 CH2          6.1184    12.1328   -44.8768 CH2           1 RES     
    1176 CH2          6.5425    11.6519   -43.4766 CH2           1 RES     
    1177 CH2          5.3940    11.8947   -42.4799 CH2           1 RES     
    1178 CH2          5.8181    11.4138   -41.0797 CH2           1 RES     
    1179 CH2          4.6696    11.6567   -40.0830 CH2           1 RES     
    1180 CH2          5.0937    11.1758   -38.6829 CH2           1 RES     
    1181 CH2          3.9451    11.4186   -37.6861 CH2           1 RES     
    1182 CH2          4.3693    10.9377   -36.2860 CH2           1 RES     
    1183 CH2          3.2207    11.1805   -35.2893 CH2           1 RES     
    1184 CH2          3.6449    10.6996   -33.8891 CH2           1 RES     
    1185 CH2          2.4963    10.9424   -32.8924 CH2           1 RES     
    1186 CH2          2.9205    10.4615   -31.4922 CH2           1 RES     
    1187 CH2          1.7719    10.7043   -30.4955 CH2           1 RES     
    1188 CH3          2.1768    10.2453   -29.1590 CH3           1 RES     
    1189 CH3         -2.8097    -0.0000   -57.6374 CH3           1 RES     
    1190 CH3         -0.9447     1.2932   -58.2559 CH3           1 RES     
    1191 CH3         -2.8968     1.6017   -59.1925 CH3           1 RES     
    1192 NL          -2.2713     1.2481   -58.0814 NL            1 RES     
    1193 CH2         -2.6746     2.2383   -57.1896 CH2           1 RES     
    1194 CH2         -1.9318     1.7986   -55.9142 CH2           1 RES     
    1195 OA          -2.2349     2.7467   -54.8122 OA            1 RES     
    1196 P           -1.1403     3.9131   -54.8484 P             1 RES     
    1197 OM           0.2816     3.2206   -54.6060 OM            1 RES     
    1198 OM          -1.2903     4.6446   -56.2634 OM            1 RES     
    1199 OA          -1.4339     4.9577   -53.6725 OA            1 RES     
    1200 CH2         -0.4012     6.0230   -53.7367 CH2           1 RES     
    1201 CH1         -0.1327     6.5529   -52.5152 CH1           1 RES     
    1202 OE           1.1940     5.9538   -52.7198 OE            1 RES     
    1203 C            2.1170     5.5389   -51.6126 C             1 RES     
    1204 O            2.9467     4.6350   -51.6992 O             1 RES     
    1205 CH2          1.6366     6.2690   -50.5123 CH2           1 RES     
    1206 CH2          2.5027     5.7299   -49.3587 CH2           1 RES     
    1207 CH2          1.9914     6.2994   -48.0223 CH2           1 RES     
    1208 CH2          2.8576     5.7603   -46.8688 CH2           1 RES     
    1209 CH2          2.3463     6.3299   -45.5324 CH2           1 RES     
    1210 CH2          3.2124     5.7908   -44.3789 CH2           1 RES     
    1211 CH2          2.7012     6.3604   -43.0425 CH2           1 RES     
    1212 CH2          3.5673     5.8212   -41.8889 CH2           1 RES     
    1213 CH2          3.0560     6.3908   -40.5526 CH2           1 RES     
    1214 CH2          3.9222     5.8517   -39.3990 CH2           1 RES     
    1215 CH2          3.4109     6.4213   -38.0627 CH2           1 RES     
    1216 CH2          4.2770     5.8821   -36.9091 CH2           1 RES     
    1217 CH2          3.7658     6.4517   -35.5728 CH2           1 RES     
    1218 CH2          4.6319     5.9126   -34.4192 CH2           1 RES     
    1219 CH2          4.1206     6.4822   -33.0829 CH2           1 RES     
    1220 CH2          4.9868     5.9431   -31.9293 CH2           1 RES     
    1221 CH3          4.4987     6.4868   -30.6537 CH3           1 RES     
    1222 CH2         -0.8968     5.7541   -51.4430 CH2           1 RES     
    1223 OE           0.0796     5.5387   -50.3732 OE            1 RES     
    1224 C           -0.7983     4.7683   -49.4321 C             1 RES     
    1225 O           -1.9751     4.4855   -49.6510 O             1 RES     
    1226 CH2         -0.0126     4.6795   -48.2704 CH2           1 RES     
    1227 CH2         -0.9770     4.0101   -47.2737 CH2           1 RES     
    1228 CH2         -0.3362     3.9890   -45.8735 CH2           1 RES     
    1229 CH2         -1.3006     3.3196   -44.8768 CH2           1 RES     
    1230 CH2         -0.6597     3.2985   -43.4766 CH2           1 RES     
    1231 CH2         -1.6242     2.6291   -42.4799 CH2           1 RES     
    1232 CH2         -0.9833     2.6080   -41.0797 CH2           1 RES     
    1233 CH2         -1.9477     1.9386   -40.0830 CH2           1 RES     
    1234 CH2         -1.3068     1.9175   -38.6829 CH2           1 RES     
    1235 CH2         -2.2713     1.2481   -37.6861 CH2           1 RES     
    1236 CH2         -1.6304     1.2270   -36.2860 CH2           1 RES     
    1237 CH2         -2.5948     0.5576   -35.2893 CH2           1 RES     
    1238 CH2         -1.9540     0.5365   -33.8891 CH2           1 RES     
    1239 CH2         -2.9184    -0.1328   -32.8924 CH2           1 RES     
    1240 CH2         -2.2775    -0.1540   -31.4922 CH2           1 RES     
    1241 CH2         -3.2419    -0.8233   -30.4955 CH2           1 RES     
    1242 CH3         -2.6302    -0.8435   -29.1590 CH3           1 RES     
    1243 CH3         -8.2869    16.4317   -57.6374 CH3           1 RES     
    1244 CH3         -6.3334    17.5868   -58.2559 CH3           1 RES     
    1245 CH3         -8.2581    18.0354   -59.1925 CH3           1 RES     
    1246 NL          -7.6597    17.6377   -58.0814 NL            1 RES     
    1247 CH2         -7.9905    18.6544   -57.1896 CH2           1 RES     
    1248 CH2         -7.2814    18.1622   -55.9142 CH2           1 RES     
    1249 OA          -7.5153    19.1297   -54.8122 OA            1 RES     
    1250 P           -6.3392    20.2140   -54.8484 P             1 RES     
    1251 OM          -4.9711    19.4206   -54.6060 OM            1 RES     
    1252 OM          -6.4360    20.9544   -56.2634 OM            1 RES     
    1253 OA          -6.5566    21.2771   -53.6725 OA            1 RES     
    1254 CH2         -5.4497    22.2650   -53.7367 CH2           1 RES     
    1255 CH1         -5.1436    22.7741   -52.5152 CH1           1 RES     
    1256 OE          -3.8636    22.0808   -52.7198 OE            1 RES     
    1257 C           -2.9730    21.6002   -51.6126 C             1 RES     
    1258 O           -2.2108    20.6388   -51.6992 O             1 RES     
    1259 CH2         -3.3994    22.3631   -50.5123 CH2           1 RES     
    1260 CH2         -2.5745    21.7628   -49.3587 CH2           1 RES     
    1261 CH2         -3.0433    22.3679   -48.0223 CH2           1 RES     
    1262 CH2         -2.2184    21.7676   -46.8688 CH2           1 RES     
    1263 CH2         -2.6871    22.3726   -45.5324 CH2           1 RES     
    1264 CH2         -1.8622    21.7723   -44.3789 CH2           1 RES     
    1265 CH2         -2.3310    22.3773   -43.0425 CH2           1 RES     
    1266 CH2         -1.5061    21.7771   -41.8889 CH2           1 RES     
    1267 CH2         -1.9749    22.3821   -40.5526 CH2           1 RES     
    1268 CH2         -1.1499    21.7818   -39.3990 CH2           1 RES     
    1269 CH2         -1.6187    22.3868   -38.0627 CH2           1 RES     
    1270 CH2         -0.7938    21.7865   -36.9091 CH2           1 RES     
    1271 CH2         -1.2626    22.3916   -35.5728 CH2           1 RES     
    1272 CH2         -0.4377    21.7913   -34.4192 CH2           1 RES     
    1273 CH2         -0.9064    22.3963   -33.0829 CH2           1 RES     
    1274 CH2         -0.0815    21.7960   -31.9293 CH2           1 RES     
    1275 CH3         -0.5290    22.3736   -30.6537 CH3           1 RES     
    1276 CH2         -5.9634    22.0325   -51.4430 CH2           1 RES     
    1277 OE          -5.0050    21.7472   -50.3732 OE            1 RES     
    1278 C           -5.9363    21.0422   -49.4321 C             1 RES     
    1279 O           -7.1305    20.8452   -49.6510 O             1 RES     
    1280 CH2         -5.1591    20.8969   -48.2704 CH2           1 RES     
    1281 CH2         -6.1694    20.2989   -47.2737 CH2           1 RES     
    1282 CH2         -5.5317    20.2315   -45.8735 CH2           1 RES     
    1283 CH2         -6.5420    19.6336   -44.8768 CH2           1 RES     
    1284 CH2         -5.9043    19.5662   -43.4766 CH2           1 RES     
    1285 CH2         -6.9146    18.9683   -42.4799 CH2           1 RES     
    1286 CH2         -6.2769    18.9009   -41.0797 CH2           1 RES     
    1287 CH2         -7.2871    18.3030   -40.0830 CH2           1 RES     
    1288 CH2         -6.6495    18.2356   -38.6829 CH2           1 RES     
    1289 CH2         -7.6597    17.6377   -37.6861 CH2           1 RES     
    1290 CH2         -7.0221    17.5703   -36.2860 CH2           1 RES     
    1291 CH2         -8.0323    16.9723   -35.2893 CH2           1 RES     
    1292 CH2         -7.3947    16.9050   -33.8891 CH2           1 RES     
    1293 CH2         -8.4049    16.3070   -32.8924 CH2           1 RES     
    1294 CH2         -7.7673    16.2397   -31.4922 CH2           1 RES     
    1295 CH2         -8.7775    15.6417   -30.4955 CH2           1 RES     
    1296 CH3         -8.1688    15.5774   -29.1590 CH3           1 RES     
    1297 CH3          2.6675    16.4317   -57.6374 CH3           1 RES     
    1298 CH3          4.8652    15.8652   -58.2559 CH3           1 RES     
    1299 CH3          3.8229    17.5443   -59.1925 CH3           1 RES     
    1300 NL           3.9641    16.8398   -58.0814 NL            1 RES     
    1301 CH2          4.4500    17.7922   -57.1896 CH2           1 RES     
    1302 CH2          4.6026    16.9427   -55.9142 CH2           1 RES     
    1303 OA           5.1221    17.7917   -54.8122 OA            1 RES     
    1304 P            6.7204    17.7254   -54.8484 P             1 RES     
    1305 OM           7.1255    16.1967   -54.6060 OM            1 RES     
    1306 OM           7.1760    18.3170   -56.2634 OM            1 RES     
    1307 OA           7.3192    18.6303   -53.6725 OA            1 RES     
    1308 CH2          8.8003    18.5449   -53.7367 CH2           1 RES     
    1309 CH1          9.3769    18.6880   -52.5152 CH1           1 RES     
    1310 OE           9.7905    17.2923   -52.7198 OE            1 RES     
    1311 C           10.0796    16.3225   -51.6126 C             1 RES     
    1312 O            9.9377    15.1038   -51.6992 O             1 RES     
    1313 CH2         10.3183    17.1633   -50.5123 CH2           1 RES     
    1314 CH2         10.4763    16.1554   -49.3587 CH2           1 RES     
    1315 CH2         10.5733    16.9146   -48.0223 CH2           1 RES     
    1316 CH2         10.7312    15.9067   -46.8688 CH2           1 RES     
    1317 CH2         10.8282    16.6659   -45.5324 CH2           1 RES     
    1318 CH2         10.9862    15.6580   -44.3789 CH2           1 RES     
    1319 CH2         11.0832    16.4172   -43.0425 CH2           1 RES     
    1320 CH2         11.2412    15.4093   -41.8889 CH2           1 RES     
    1321 CH2         11.3382    16.1685   -40.5526 CH2           1 RES     
    1322 CH2         11.4962    15.1606   -39.3990 CH2           1 RES     
    1323 CH2         11.5931    15.9198   -38.0627 CH2           1 RES     
    1324 CH2         11.7511    14.9119   -36.9091 CH2           1 RES     
    1325 CH2         11.8481    15.6711   -35.5728 CH2           1 RES     
    1326 CH2         12.0061    14.6632   -34.4192 CH2           1 RES     
    1327 CH2         12.1031    15.4224   -33.0829 CH2           1 RES     
    1328 CH2         12.2611    14.4145   -31.9293 CH2           1 RES     
    1329 CH3         12.3536    15.1392   -30.6537 CH3           1 RES     
    1330 CH2          8.2729    18.7443   -51.4430 CH2           1 RES     
    1331 OE           8.7480    17.8644   -50.3732 OE            1 RES     
    1332 C            7.5911    18.0254   -49.4321 C             1 RES     
    1333 O            6.6080    18.7314   -49.6510 O             1 RES     
    1334 CH2          8.0374    17.3727   -48.2704 CH2           1 RES     
    1335 CH2          6.9004    17.6652   -47.2737 CH2           1 RES     
    1336 CH2          7.3033    17.1664   -45.8735 CH2           1 RES     
    1337 CH2          6.1664    17.4589   -44.8768 CH2           1 RES     
    1338 CH2          6.5692    16.9600   -43.4766 CH2           1 RES     
    1339 CH2          5.4323    17.2525   -42.4799 CH2           1 RES     
    1340 CH2          5.8351    16.7537   -41.0797 CH2           1 RES     
    1341 CH2          4.6982    17.0462   -40.0830 CH2           1 RES     
    1342 CH2          5.1010    16.5473   -38.6829 CH2           1 RES     
    1343 CH2          3.9641    16.8398   -37.6861 CH2           1 RES     
    1344 CH2          4.3670    16.3409   -36.2860 CH2           1 RES     
    1345 CH2          3.2300    16.6335   -35.2893 CH2           1 RES     
    1346 CH2          3.6329    16.1346   -33.8891 CH2           1 RES     
    1347 CH2          2.4959    16.4271   -32.8924 CH2           1 RES     
    1348 CH2          2.8988    15.9282   -31.4922 CH2           1 RES     
    1349 CH2          1.7619    16.2207   -30.4955 CH2           1 RES     
    1350 CH3          2.1464    15.7446   -29.1590 CH3           1 RES     
    1351 CH3          8.1447    -0.0000   -57.6374 CH3           1 RES     
    1352 CH3         10.2131     0.9341   -58.2559 CH3           1 RES     
    1353 CH3          8.3491     1.5910   -59.1925 CH3           1 RES     
    1354 NL           8.9003     1.1300   -58.0814 NL            1 RES     
    1355 CH2          8.6829     2.1769   -57.1896 CH2           1 RES     
    1356 CH2          9.3338     1.6099   -55.9142 CH2           1 RES     
    1357 OA           9.2073     2.5973   -54.8122 OA            1 RES     
    1358 P           10.4951     3.5462   -54.8484 P             1 RES     
    1359 OM          11.7681     2.6077   -54.6060 OM            1 RES     
    1360 OM          10.4800     4.2927   -56.2634 OM            1 RES     
    1361 OA          10.3955     4.6267   -53.6725 OA            1 RES     
    1362 CH2         11.6039     5.4874   -53.7367 CH2           1 RES     
    1363 CH1         11.9639     5.9599   -52.5152 CH1           1 RES     
    1364 OE          13.1603     5.1305   -52.7198 OE            1 RES     
    1365 C           13.9928     4.5553   -51.6126 C             1 RES     
    1366 O           14.6452     3.5161   -51.6992 O             1 RES     
    1367 CH2         13.6526     5.3603   -50.5123 CH2           1 RES     
    1368 CH2         14.4068     4.6733   -49.3587 CH2           1 RES     
    1369 CH2         14.0071     5.3260   -48.0223 CH2           1 RES     
    1370 CH2         14.7613     4.6390   -46.8688 CH2           1 RES     
    1371 CH2         14.3616     5.2917   -45.5324 CH2           1 RES     
    1372 CH2         15.1158     4.6047   -44.3789 CH2           1 RES     
    1373 CH2         14.7162     5.2574   -43.0425 CH2           1 RES     
    1374 CH2         15.4704     4.5704   -41.8889 CH2           1 RES     
    1375 CH2         15.0707     5.2231   -40.5526 CH2           1 RES     
    1376 CH2         15.8249     4.5361   -39.3990 CH2           1 RES     
    1377 CH2         15.4252     5.1888   -38.0627 CH2           1 RES     
    1378 CH2         16.1794     4.5018   -36.9091 CH2           1 RES     
    1379 CH2         15.7797     5.1545   -35.5728 CH2           1 RES     
    1380 CH2         16.5339     4.4675   -34.4192 CH2           1 RES     
    1381 CH2         16.1342     5.1202   -33.0829 CH2           1 RES     
    1382 CH2         16.8884     4.4332   -31.9293 CH2           1 RES     
    1383 CH3         16.5069     5.0563   -30.6537 CH3           1 RES     
    1384 CH2         11.0679     5.3126   -51.4430 CH2           1 RES     
    1385 OE          11.9892     4.9240   -50.3732 OE            1 RES     
    1386 C           10.9863     4.3252   -49.4321 C             1 RES     
    1387 O            9.7777     4.2602   -49.6510 O             1 RES     
    1388 CH2         11.7429     4.0957   -48.2704 CH2           1 RES     
    1389 CH2         10.6732     3.6120   -47.2737 CH2           1 RES     
    1390 CH2         11.2996     3.4752   -45.8735 CH2           1 RES     
    1391 CH2         10.2300     2.9915   -44.8768 CH2           1 RES     
    1392 CH2         10.8564     2.8547   -43.4766 CH2           1 RES     
    1393 CH2          9.7867     2.3710   -42.4799 CH2           1 RES     
    1394 CH2         10.4132     2.2342   -41.0797 CH2           1 RES     
    1395 CH2          9.3435     1.7505   -40.0830 CH2           1 RES     
    1396 CH2          9.9699     1.6137   -38.6829 CH2           1 RES     
    1397 CH2          8.9003     1.1300   -37.6861 CH2           1 RES     
    1398 CH2          9.5267     0.9932   -36.2860 CH2           1 RES     
    1399 CH2          8.4570     0.5095   -35.2893 CH2           1 RES     
    1400 CH2          9.0835     0.3727   -33.8891 CH2           1 RES     
    1401 CH2          8.0138    -0.1110   -32.8924 CH2           1 RES     
    1402 CH2          8.6403    -0.2478   -31.4922 CH2           1 RES     
    1403 CH2          7.5706    -0.7315   -30.4955 CH2           1 RES     
    1404 CH3          8.1686    -0.8621   -29.1590 CH3           1 RES     
    1405 CH3         -8.2869    10.9545   -57.6374 CH3           1 RES     
    1406 CH3         -6.1484    11.7143   -58.2559 CH3           1 RES     
    1407 CH3         -7.9516    12.5230   -59.1925 CH3           1 RES     
    1408 NL          -7.4405    12.0181   -58.0814 NL            1 RES     
    1409 CH2         -7.5705    13.0793   -57.1896 CH2           1 RES     
    1410 CH2         -6.9688    12.4605   -55.9142 CH2           1 RES     
    1411 OA          -7.0131    13.4549   -54.8122 OA            1 RES     
    1412 P           -5.6513    14.2940   -54.8484 P             1 RES     
    1413 OM          -4.4603    13.2534   -54.6060 OM            1 RES     
    1414 OM          -5.6046    15.0393   -56.2634 OM            1 RES     
    1415 OA          -5.6611    15.3790   -53.6725 OA            1 RES     
    1416 CH2         -4.3856    16.1368   -53.7367 CH2           1 RES     
    1417 CH1         -3.9878    16.5779   -52.5152 CH1           1 RES     
    1418 OE          -2.8641    15.6524   -52.7198 OE            1 RES     
    1419 C           -2.0820    15.0103   -51.6126 C             1 RES     
    1420 O           -1.5179    13.9207   -51.6992 O             1 RES     
    1421 CH2         -2.3545    15.8407   -50.5123 CH2           1 RES     
    1422 CH2         -1.6597    15.0936   -49.3587 CH2           1 RES     
    1423 CH2         -2.0040    15.7772   -48.0223 CH2           1 RES     
    1424 CH2         -1.3092    15.0301   -46.8688 CH2           1 RES     
    1425 CH2         -1.6536    15.7137   -45.5324 CH2           1 RES     
    1426 CH2         -0.9588    14.9666   -44.3789 CH2           1 RES     
    1427 CH2         -1.3031    15.6502   -43.0425 CH2           1 RES     
    1428 CH2         -0.6083    14.9031   -41.8889 CH2           1 RES     
    1429 CH2         -0.9526    15.5867   -40.5526 CH2           1 RES     
    1430 CH2         -0.2579    14.8396   -39.3990 CH2           1 RES     
    1431 CH2         -0.6022    15.5232   -38.0627 CH2           1 RES     
    1432 CH2          0.0926    14.7761   -36.9091 CH2           1 RES     
    1433 CH2         -0.2517    15.4597   -35.5728 CH2           1 RES     
    1434 CH2          0.4431    14.7126   -34.4192 CH2           1 RES     
    1435 CH2          0.0988    15.3962   -33.0829 CH2           1 RES     
    1436 CH2          0.7935    14.6491   -31.9293 CH2           1 RES     
    1437 CH3          0.4649    15.3016   -30.6537 CH3           1 RES     
    1438 CH2         -4.9343    16.0070   -51.4430 CH2           1 RES     
    1439 OE          -4.0483    15.5435   -50.3732 OE            1 RES     
    1440 C           -5.0973    15.0298   -49.4321 C             1 RES     
    1441 O           -6.3071    15.0650   -49.6510 O             1 RES     
    1442 CH2         -4.3623    14.7384   -48.2704 CH2           1 RES     
    1443 CH2         -5.4683    14.3449   -47.2737 CH2           1 RES     
    1444 CH2         -4.8554    14.1567   -45.8735 CH2           1 RES     
    1445 CH2         -5.9614    13.7632   -44.8768 CH2           1 RES     
    1446 CH2         -5.3484    13.5750   -43.4766 CH2           1 RES     
    1447 CH2         -6.4544    13.1815   -42.4799 CH2           1 RES     
    1448 CH2         -5.8414    12.9933   -41.0797 CH2           1 RES     
    1449 CH2         -6.9475    12.5998   -40.0830 CH2           1 RES     
    1450 CH2         -6.3345    12.4116   -38.6829 CH2           1 RES     
    1451 CH2         -7.4405    12.0181   -37.6861 CH2           1 RES     
    1452 CH2         -6.8275    11.8299   -36.2860 CH2           1 RES     
    1453 CH2         -7.9335    11.4364   -35.2893 CH2           1 RES     
    1454 CH2         -7.3206    11.2482   -33.8891 CH2           1 RES     
    1455 CH2         -8.4266    10.8547   -32.8924 CH2           1 RES     
    1456 CH2         -7.8136    10.6665   -31.4922 CH2           1 RES     
    1457 CH2         -8.9196    10.2730   -30.4955 CH2           1 RES     
    1458 CH3         -8.3345    10.0934   -29.1590 CH3           1 RES     
    1459 CH3         -2.8097    10.9545   -57.6374 CH3           1 RES     
    1460 CH3         -0.9546    12.2618   -58.2559 CH3           1 RES     
    1461 CH3         -2.9090    12.5554   -59.1925 CH3           1 RES     
    1462 NL          -2.2808    12.2067   -58.0814 NL            1 RES     
    1463 CH2         -2.6917    13.1938   -57.1896 CH2           1 RES     
    1464 CH2         -1.9456    12.7597   -55.9142 CH2           1 RES     
    1465 OA          -2.2559    13.7055   -54.8122 OA            1 RES     
    1466 P           -1.1702    14.8802   -54.8484 P             1 RES     
    1467 OM           0.2569    14.1986   -54.6060 OM            1 RES     
    1468 OM          -1.3258    15.6105   -56.2634 OM            1 RES     
    1469 OA          -1.4717    15.9225   -53.6725 OA            1 RES     
    1470 CH2         -0.4472    16.9956   -53.7367 CH2           1 RES     
    1471 CH1         -0.1828    17.5276   -52.5152 CH1           1 RES     
    1472 OE           1.1485    16.9387   -52.7198 OE            1 RES     
    1473 C            2.0746    16.5307   -51.6126 C             1 RES     
    1474 O            2.9111    15.6332   -51.6992 O             1 RES     
    1475 CH2          1.5886    17.2572   -50.5123 CH2           1 RES     
    1476 CH2          2.4588    16.7247   -49.3587 CH2           1 RES     
    1477 CH2          1.9432    17.2903   -48.0223 CH2           1 RES     
    1478 CH2          2.8135    16.7578   -46.8688 CH2           1 RES     
    1479 CH2          2.2979    17.3235   -45.5324 CH2           1 RES     
    1480 CH2          3.1681    16.7910   -44.3789 CH2           1 RES     
    1481 CH2          2.6525    17.3567   -43.0425 CH2           1 RES     
    1482 CH2          3.5227    16.8242   -41.8889 CH2           1 RES     
    1483 CH2          3.0071    17.3898   -40.5526 CH2           1 RES     
    1484 CH2          3.8773    16.8573   -39.3990 CH2           1 RES     
    1485 CH2          3.3617    17.4230   -38.0627 CH2           1 RES     
    1486 CH2          4.2320    16.8905   -36.9091 CH2           1 RES     
    1487 CH2          3.7164    17.4562   -35.5728 CH2           1 RES     
    1488 CH2          4.5866    16.9237   -34.4192 CH2           1 RES     
    1489 CH2          4.0710    17.4893   -33.0829 CH2           1 RES     
    1490 CH2          4.9412    16.9568   -31.9293 CH2           1 RES     
    1491 CH3          4.4490    17.4968   -30.6537 CH3           1 RES     
    1492 CH2         -0.9408    16.7229   -51.4430 CH2           1 RES     
    1493 OE           0.0373    16.5150   -50.3732 OE            1 RES     
    1494 C           -0.8347    15.7379   -49.4321 C             1 RES     
    1495 O           -2.0094    15.4462   -49.6510 O             1 RES     
    1496 CH2         -0.0484    15.6551   -48.2704 CH2           1 RES     
    1497 CH2         -1.0077    14.9784   -47.2737 CH2           1 RES     
    1498 CH2         -0.3667    14.9622   -45.8735 CH2           1 RES     
    1499 CH2         -1.3260    14.2855   -44.8768 CH2           1 RES     
    1500 CH2         -0.6850    14.2692   -43.4766 CH2           1 RES     
    1501 CH2         -1.6442    13.5925   -42.4799 CH2           1 RES     
    1502 CH2         -1.0032    13.5763   -41.0797 CH2           1 RES     
    1503 CH2         -1.9625    12.8996   -40.0830 CH2           1 RES     
    1504 CH2         -1.3215    12.8834   -38.6829 CH2           1 RES     
    1505 CH2         -2.2808    12.2067   -37.6861 CH2           1 RES     
    1506 CH2         -1.6398    12.1904   -36.2860 CH2           1 RES     
    1507 CH2         -2.5991    11.5137   -35.2893 CH2           1 RES     
    1508 CH2         -1.9581    11.4975   -33.8891 CH2           1 RES     
    1509 CH2         -2.9174    10.8208   -32.8924 CH2           1 RES     
    1510 CH2         -2.2764    10.8046   -31.4922 CH2           1 RES     
    1511 CH2         -3.2356    10.1278   -30.4955 CH2           1 RES     
    1512 CH3         -2.6238    10.1124   -29.1590 CH3           1 RES     
    1513 CH3         -8.2869     5.4772   -57.6374 CH3           1 RES     
    1514 CH3         -6.0707     5.9658   -58.2559 CH3           1 RES     
    1515 CH3         -7.7596     6.9921   -59.1925 CH3           1 RES     
    1516 NL          -7.3151     6.4276   -58.0814 NL            1 RES     
    1517 CH2         -7.3124     7.4968   -57.1896 CH2           1 RES     
    1518 CH2         -6.7921     6.8081   -55.9142 CH2           1 RES     
    1519 OA          -6.7127     7.8003   -54.8122 OA            1 RES     
    1520 P           -5.2572     8.4639   -54.8484 P             1 RES     
    1521 OM          -4.2046     7.2836   -54.6060 OM            1 RES     
    1522 OM          -5.1184     9.1976   -56.2634 OM            1 RES     
    1523 OA          -5.1323     9.5418   -53.6725 OA            1 RES     
    1524 CH2         -3.7727    10.1354   -53.7367 CH2           1 RES     
    1525 CH1         -3.3231    10.5237   -52.5152 CH1           1 RES     
    1526 OE          -2.3230     9.4659   -52.7198 OE            1 RES     
    1527 C           -1.6267     8.7317   -51.6126 C             1 RES     
    1528 O           -1.2021     7.5806   -51.6992 O             1 RES     
    1529 CH2         -1.7940     9.5895   -50.5123 CH2           1 RES     
    1530 CH2         -1.1973     8.7620   -49.3587 CH2           1 RES     
    1531 CH2         -1.4541     9.4830   -48.0223 CH2           1 RES     
    1532 CH2         -0.8574     8.6555   -46.8688 CH2           1 RES     
    1533 CH2         -1.1142     9.3765   -45.5324 CH2           1 RES     
    1534 CH2         -0.5175     8.5490   -44.3789 CH2           1 RES     
    1535 CH2         -0.7744     9.2700   -43.0425 CH2           1 RES     
    1536 CH2         -0.1777     8.4425   -41.8889 CH2           1 RES     
    1537 CH2         -0.4345     9.1635   -40.5526 CH2           1 RES     
    1538 CH2          0.1622     8.3360   -39.3990 CH2           1 RES     
    1539 CH2         -0.0946     9.0570   -38.0627 CH2           1 RES     
    1540 CH2          0.5021     8.2295   -36.9091 CH2           1 RES     
    1541 CH2          0.2453     8.9505   -35.5728 CH2           1 RES     
    1542 CH2          0.8420     8.1229   -34.4192 CH2           1 RES     
    1543 CH2          0.5851     8.8440   -33.0829 CH2           1 RES     
    1544 CH2          1.1818     8.0164   -31.9293 CH2           1 RES     
    1545 CH3          0.9367     8.7047   -30.6537 CH3           1 RES     
    1546 CH2         -4.3332    10.0747   -51.4430 CH2           1 RES     
    1547 OE          -3.5116     9.5048   -50.3732 OE            1 RES     
    1548 C           -4.6162     9.1252   -49.4321 C             1 RES     
    1549 O           -5.8124     9.3103   -49.6510 O             1 RES     
    1550 CH2         -3.9231     8.7449   -48.2704 CH2           1 RES     
    1551 CH2         -5.0694     8.4917   -47.2737 CH2           1 RES     
    1552 CH2         -4.4845     8.2289   -45.8735 CH2           1 RES     
    1553 CH2         -5.6308     7.9756   -44.8768 CH2           1 RES     
    1554 CH2         -5.0459     7.7129   -43.4766 CH2           1 RES     
    1555 CH2         -6.1922     7.4596   -42.4799 CH2           1 RES     
    1556 CH2         -5.6073     7.1968   -41.0797 CH2           1 RES     
    1557 CH2         -6.7536     6.9436   -40.0830 CH2           1 RES     
    1558 CH2         -6.1687     6.6808   -38.6829 CH2           1 RES     
    1559 CH2         -7.3151     6.4276   -37.6861 CH2           1 RES     
    1560 CH2         -6.7302     6.1648   -36.2860 CH2           1 RES     
    1561 CH2         -7.8765     5.9116   -35.2893 CH2           1 RES     
    1562 CH2         -7.2916     5.6488   -33.8891 CH2           1 RES     
    1563 CH2         -8.4379     5.3956   -32.8924 CH2           1 RES     
    1564 CH2         -7.8530     5.1328   -31.4922 CH2           1 RES     
    1565 CH2         -8.9993     4.8795   -30.4955 CH2           1 RES     
    1566 CH3         -8.4410     4.6287   -29.1590 CH3           1 RES     
    1567 CH3          2.6675    -0.0000   -57.6374 CH3           1 RES     
    1568 CH3          4.9353    -0.0872   -58.2559 CH3           1 RES     
    1569 CH3          3.5605     1.3325   -59.1925 CH3           1 RES     
    1570 NL           3.8480     0.6740   -58.0814 NL            1 RES     
    1571 CH2          4.1207     1.7078   -57.1896 CH2           1 RES     
    1572 CH2          4.4501     0.9100   -55.9142 CH2           1 RES     
    1573 OA           4.7777     1.8499   -54.8122 OA            1 RES     
    1574 P            6.3535     2.1243   -54.8484 P             1 RES     
    1575 OM           7.0738     0.7163   -54.6060 OM            1 RES     
    1576 OM           6.6732     2.7991   -56.2634 OM            1 RES     
    1577 OA           6.7467     3.1356   -53.6725 OA            1 RES     
    1578 CH2          8.2122     3.3665   -53.7367 CH2           1 RES     
    1579 CH1          8.7453     3.6286   -52.5152 CH1           1 RES     
    1580 OE           9.4457     2.3525   -52.7198 OE            1 RES     
    1581 C            9.9340     1.4661   -51.6126 C             1 RES     
    1582 O           10.0539     0.2451   -51.6992 O             1 RES     
    1583 CH2          9.9888     2.3384   -50.5123 CH2           1 RES     
    1584 CH2         10.3571     1.3870   -49.3587 CH2           1 RES     
    1585 CH2         10.2908     2.1495   -48.0223 CH2           1 RES     
    1586 CH2         10.6590     1.1980   -46.8688 CH2           1 RES     
    1587 CH2         10.5927     1.9605   -45.5324 CH2           1 RES     
    1588 CH2         10.9610     1.0091   -44.3789 CH2           1 RES     
    1589 CH2         10.8946     1.7716   -43.0425 CH2           1 RES     
    1590 CH2         11.2629     0.8202   -41.8889 CH2           1 RES     
    1591 CH2         11.1966     1.5827   -40.5526 CH2           1 RES     
    1592 CH2         11.5648     0.6313   -39.3990 CH2           1 RES     
    1593 CH2         11.4985     1.3938   -38.0627 CH2           1 RES     
    1594 CH2         11.8668     0.4423   -36.9091 CH2           1 RES     
    1595 CH2         11.8004     1.2048   -35.5728 CH2           1 RES     
    1596 CH2         12.1687     0.2534   -34.4192 CH2           1 RES     
    1597 CH2         12.1024     1.0159   -33.0829 CH2           1 RES     
    1598 CH2         12.4706     0.0645   -31.9293 CH2           1 RES     
    1599 CH3         12.4073     0.7923   -30.6537 CH3           1 RES     
    1600 CH2          7.6545     3.4494   -51.4430 CH2           1 RES     
    1601 OE           8.3055     2.6904   -50.3732 OE            1 RES     
    1602 C            7.1408     2.6022   -49.4321 C             1 RES     
    1603 O            6.0303     3.0835   -49.6510 O             1 RES     
    1604 CH2          7.7154     2.0591   -48.2704 CH2           1 RES     
    1605 CH2          6.5423     2.1037   -47.2737 CH2           1 RES     
    1606 CH2          7.0418     1.7017   -45.8735 CH2           1 RES     
    1607 CH2          5.8687     1.7463   -44.8768 CH2           1 RES     
    1608 CH2          6.3682     1.3442   -43.4766 CH2           1 RES     
    1609 CH2          5.1951     1.3888   -42.4799 CH2           1 RES     
    1610 CH2          5.6947     0.9868   -41.0797 CH2           1 RES     
    1611 CH2          4.5216     1.0314   -40.0830 CH2           1 RES     
    1612 CH2          5.0211     0.6294   -38.6829 CH2           1 RES     
    1613 CH2          3.8480     0.6740   -37.6861 CH2           1 RES     
    1614 CH2          4.3475     0.2720   -36.2860 CH2           1 RES     
    1615 CH2          3.1744     0.3165   -35.2893 CH2           1 RES     
    1616 CH2          3.6739    -0.0855   -33.8891 CH2           1 RES     
    1617 CH2          2.5008    -0.0409   -32.8924 CH2           1 RES     
    1618 CH2          3.0003    -0.4429   -31.4922 CH2           1 RES     
    1619 CH2          1.8272    -0.3983   -30.4955 CH2           1 RES     
    1620 CH3          2.3041    -0.7821   -29.1590 CH3           1 RES     
    1621 CH3          8.1447    16.4317   -57.6374 CH3           1 RES     
    1622 CH3         10.3947    16.7286   -58.2559 CH3           1 RES     
    1623 CH3          8.7999    17.8958   -59.1925 CH3           1 RES     
    1624 NL           9.1945    17.2953   -58.0814 NL            1 RES     
    1625 CH2          9.2887    18.3603   -57.1896 CH2           1 RES     
    1626 CH2          9.7481    17.6295   -55.9142 CH2           1 RES     
    1627 OA           9.9123    18.6113   -54.8122 OA            1 RES     
    1628 P           11.4192    19.1478   -54.8484 P             1 RES     
    1629 OM          12.3669    17.8816   -54.6060 OM            1 RES     
    1630 OM          11.6204    19.8669   -56.2634 OM            1 RES     
    1631 OA          11.6360    20.2110   -53.6725 OA            1 RES     
    1632 CH2         13.0415    20.6859   -53.7367 CH2           1 RES     
    1633 CH1         13.5227    21.0343   -52.5152 CH1           1 RES     
    1634 OE          14.4285    19.8947   -52.7198 OE            1 RES     
    1635 C           15.0594    19.1035   -51.6126 C             1 RES     
    1636 O           15.3838    17.9202   -51.6992 O             1 RES     
    1637 CH2         14.9662    19.9725   -50.5123 CH2           1 RES     
    1638 CH2         15.4898    19.0969   -49.3587 CH2           1 RES     
    1639 CH2         15.2957    19.8373   -48.0223 CH2           1 RES     
    1640 CH2         15.8193    18.9617   -46.8688 CH2           1 RES     
    1641 CH2         15.6252    19.7021   -45.5324 CH2           1 RES     
    1642 CH2         16.1488    18.8264   -44.3789 CH2           1 RES     
    1643 CH2         15.9547    19.5668   -43.0425 CH2           1 RES     
    1644 CH2         16.4783    18.6912   -41.8889 CH2           1 RES     
    1645 CH2         16.2842    19.4316   -40.5526 CH2           1 RES     
    1646 CH2         16.8078    18.5560   -39.3990 CH2           1 RES     
    1647 CH2         16.6137    19.2963   -38.0627 CH2           1 RES     
    1648 CH2         17.1373    18.4207   -36.9091 CH2           1 RES     
    1649 CH2         16.9432    19.1611   -35.5728 CH2           1 RES     
    1650 CH2         17.4668    18.2855   -34.4192 CH2           1 RES     
    1651 CH2         17.2727    19.0259   -33.0829 CH2           1 RES     
    1652 CH2         17.7962    18.1502   -31.9293 CH2           1 RES     
    1653 CH3         17.6110    18.8570   -30.6537 CH3           1 RES     
    1654 CH2         12.4778    20.6735   -51.4430 CH2           1 RES     
    1655 OE          13.2476    20.0353   -50.3732 OE            1 RES     
    1656 C           12.1145    19.7518   -49.4321 C             1 RES     
    1657 O           10.9387    20.0386   -49.6510 O             1 RES     
    1658 CH2         12.7725    19.3134   -48.2704 CH2           1 RES     
    1659 CH2         11.6087    19.1593   -47.2737 CH2           1 RES     
    1660 CH2         12.1690    18.8474   -45.8735 CH2           1 RES     
    1661 CH2         11.0052    18.6933   -44.8768 CH2           1 RES     
    1662 CH2         11.5654    18.3814   -43.4766 CH2           1 RES     
    1663 CH2         10.4016    18.2273   -42.4799 CH2           1 RES     
    1664 CH2         10.9618    17.9154   -41.0797 CH2           1 RES     
    1665 CH2          9.7980    17.7613   -40.0830 CH2           1 RES     
    1666 CH2         10.3583    17.4494   -38.6829 CH2           1 RES     
    1667 CH2          9.1945    17.2953   -37.6861 CH2           1 RES     
    1668 CH2          9.7547    16.9834   -36.2860 CH2           1 RES     
    1669 CH2          8.5909    16.8293   -35.2893 CH2           1 RES     
    1670 CH2          9.1511    16.5173   -33.8891 CH2           1 RES     
    1671 CH2          7.9873    16.3632   -32.8924 CH2           1 RES     
    1672 CH2          8.5476    16.0513   -31.4922 CH2           1 RES     
    1673 CH2          7.3838    15.8972   -30.4955 CH2           1 RES     
    1674 CH3          7.9185    15.5995   -29.1590 CH3           1 RES     
    1675 CH3         -8.2869    -0.0000   -57.6374 CH3           1 RES     
    1676 CH3         -6.0462    -0.3598   -58.2559 CH3           1 RES     
    1677 CH3         -7.2400     1.2152   -59.1925 CH3           1 RES     
    1678 NL          -7.0339     0.5269   -58.0814 NL            1 RES     
    1679 CH2         -6.6386     1.5203   -57.1896 CH2           1 RES     
    1680 CH2         -6.4077     0.6886   -55.9142 CH2           1 RES     
    1681 OA          -5.9693     1.5823   -54.8122 OA            1 RES     
    1682 P           -4.3719     1.6648   -54.8484 P             1 RES     
    1683 OM          -3.8264     0.1803   -54.6060 OM            1 RES     
    1684 OM          -3.9732     2.2962   -56.2634 OM            1 RES     
    1685 OA          -3.8597     2.6214   -53.6725 OA            1 RES     
    1686 CH2         -2.3771     2.6741   -53.7367 CH2           1 RES     
    1687 CH1         -1.8163     2.8701   -52.5152 CH1           1 RES     
    1688 OE          -1.2747     1.5189   -52.7198 OE            1 RES     
    1689 C           -0.8968     0.5802   -51.6126 C             1 RES     
    1690 O           -0.9248    -0.6465   -51.6992 O             1 RES     
    1691 CH2         -0.7373     1.4395   -50.5123 CH2           1 RES     
    1692 CH2         -0.4863     0.4506   -49.3587 CH2           1 RES     
    1693 CH2         -0.4603     1.2155   -48.0223 CH2           1 RES     
    1694 CH2         -0.2093     0.2267   -46.8688 CH2           1 RES     
    1695 CH2         -0.1833     0.9916   -45.5324 CH2           1 RES     
    1696 CH2          0.0677     0.0028   -44.3789 CH2           1 RES     
    1697 CH2          0.0937     0.7677   -43.0425 CH2           1 RES     
    1698 CH2          0.3446    -0.2212   -41.8889 CH2           1 RES     
    1699 CH2          0.3707     0.5438   -40.5526 CH2           1 RES     
    1700 CH2          0.6216    -0.4451   -39.3990 CH2           1 RES     
    1701 CH2          0.6476     0.3199   -38.0627 CH2           1 RES     
    1702 CH2          0.8986    -0.6690   -36.9091 CH2           1 RES     
    1703 CH2          0.9246     0.0959   -35.5728 CH2           1 RES     
    1704 CH2          1.1756    -0.8929   -34.4192 CH2           1 RES     
    1705 CH2          1.2016    -0.1280   -33.0829 CH2           1 RES     
    1706 CH2          1.4526    -1.1168   -31.9293 CH2           1 RES     
    1707 CH3          1.4774    -0.3867   -30.6537 CH3           1 RES     
    1708 CH2         -2.9207     2.8235   -51.4430 CH2           1 RES     
    1709 OE          -2.3659     1.9917   -50.3732 OE            1 RES     
    1710 C           -3.5327     2.0444   -49.4321 C             1 RES     
    1711 O           -4.5772     2.6560   -49.6510 O             1 RES     
    1712 CH2         -3.0278     1.4360   -48.2704 CH2           1 RES     
    1713 CH2         -4.1870     1.6216   -47.2737 CH2           1 RES     
    1714 CH2         -3.7395     1.1624   -45.8735 CH2           1 RES     
    1715 CH2         -4.8987     1.3479   -44.8768 CH2           1 RES     
    1716 CH2         -4.4512     0.8887   -43.4766 CH2           1 RES     
    1717 CH2         -5.6104     1.0742   -42.4799 CH2           1 RES     
    1718 CH2         -5.1630     0.6150   -41.0797 CH2           1 RES     
    1719 CH2         -6.3222     0.8006   -40.0830 CH2           1 RES     
    1720 CH2         -5.8747     0.3413   -38.6829 CH2           1 RES     
    1721 CH2         -7.0339     0.5269   -37.6861 CH2           1 RES     
    1722 CH2         -6.5864     0.0676   -36.2860 CH2           1 RES     
    1723 CH2         -7.7456     0.2532   -35.2893 CH2           1 RES     
    1724 CH2         -7.2982    -0.2061   -33.8891 CH2           1 RES     
    1725 CH2         -8.4573    -0.0205   -32.8924 CH2           1 RES     
    1726 CH2         -8.0099    -0.4798   -31.4922 CH2           1 RES     
    1727 CH2         -9.1691    -0.2942   -30.4955 CH2           1 RES     
    1728 CH3         -8.7419    -0.7326   -29.1590 CH3           1 RES     
    1729 OW          16.1900    13.0710    15.1370 OW            1 RES     
    1730 HW1         16.5180    12.2800    14.6220 HW1           1 RES     
    1731 HW2         15.1910    13.0510    15.1810 HW2           1 RES     
    1732 OW           1.3610     2.5430     4.2990 OW            1 RES     
    1733 HW1          1.1170     1.6200     4.5940 HW1           1 RES     
    1734 HW2          2.3100     2.5530     3.9830 HW2           1 RES     
    1735 OW          -1.8250     8.2620     3.2390 OW            1 RES     
    1736 HW1         -2.4890     7.5160     3.2340 HW1           1 RES     
    1737 HW2         -0.8990     7.8850     3.2570 HW2           1 RES     
    1738 OW          -4.6170    15.8380    13.4340 OW            1 RES     
    1739 HW1         -5.0690    15.8680    14.3240 HW1           1 RES     
    1740 HW2         -5.1830    16.3060    12.7550 HW2           1 RES     
    1741 OW          15.9520    -0.6450    11.3380 OW            1 RES     
    1742 HW1         15.1000    -1.1160    11.1130 HW1           1 RES     
    1743 HW2         16.4020    -1.1140    12.0980 HW2           1 RES     
    1744 OW          10.0170     6.3860     8.4180 OW            1 RES     
    1745 HW1          9.8660     5.4660     8.7770 HW1           1 RES     
    1746 HW2          9.9870     7.0460     9.1690 HW2           1 RES     
    1747 OW          11.7540     4.3300     8.6100 OW            1 RES     
    1748 HW1         11.9540     4.8730     9.4250 HW1           1 RES     
    1749 HW2         11.0760     3.6290     8.8340 HW2           1 RES     
    1750 OW           5.6670     1.5330     8.2180 OW            1 RES     
    1751 HW1          6.6350     1.7790     8.1760 HW1           1 RES     
    1752 HW2          5.3270     1.6740     9.1480 HW2           1 RES     
    1753 OW          -7.2220    16.3900     7.3630 OW            1 RES     
    1754 HW1         -6.2330    16.5390     7.3530 HW1           1 RES     
    1755 HW2         -7.4120    15.4130     7.2660 HW2           1 RES     
    1756 OW          -0.4900     9.8640     9.4840 OW            1 RES     
    1757 HW1         -0.1130     8.9420     9.5610 HW1           1 RES     
    1758 HW2          0.2140    10.4860     9.1420 HW2           1 RES     
    1759 OW          10.4780    12.4320     9.2540 OW            1 RES     
    1760 HW1         11.0990    13.0890     9.6800 HW1           1 RES     
    1761 HW2         10.5770    12.4750     8.2600 HW2           1 RES     
    1762 OW          12.0000    14.9240    13.8710 OW            1 RES     
    1763 HW1         11.6250    15.5860    14.5190 HW1           1 RES     
    1764 HW2         12.8360    14.5240    14.2470 HW2           1 RES     
    1765 OW          17.2810     1.0480    12.2160 OW            1 RES     
    1766 HW1         17.5420     1.0150    13.1800 HW1           1 RES     
    1767 HW2         16.3360     1.3680    12.1370 HW2           1 RES     
    1768 OW           9.3630    11.4840     3.9500 OW            1 RES     
    1769 HW1          8.7250    11.8150     3.2560 HW1           1 RES     
    1770 HW2          9.3610    12.1080     4.7320 HW2           1 RES     
    1771 OW          -2.6940     6.1030    10.8500 OW            1 RES     
    1772 HW1         -3.6180     5.7230    10.8730 HW1           1 RES     
    1773 HW2         -2.0280     5.3610    10.7740 HW2           1 RES     
    1774 OW          15.6670    21.5960     6.8170 OW            1 RES     
    1775 HW1         16.1050    22.4260     7.1600 HW1           1 RES     
    1776 HW2         16.2430    21.1800     6.1140 HW2           1 RES     
    1777 OW           6.3110    12.7400     5.6800 OW            1 RES     
    1778 HW1          7.2920    12.5930     5.8040 HW1           1 RES     
    1779 HW2          6.1210    13.7220     5.6610 HW2           1 RES     
    1780 OW          12.6750    11.5570     9.5670 OW            1 RES     
    1781 HW1         13.5680    11.9720     9.7400 HW1           1 RES     
    1782 HW2         12.5320    11.4720     8.5810 HW2           1 RES     
    1783 OW           2.5730    19.5610     7.7290 OW            1 RES     
    1784 HW1          3.4090    19.0130     7.7100 HW1           1 RES     
    1785 HW2          1.7790    18.9620     7.6240 HW2           1 RES     
    1786 OW          15.9400     1.7130     4.3220 OW            1 RES     
    1787 HW1         15.9640     0.7430     4.5580 HW1           1 RES     
    1788 HW2         14.9930     1.9950     4.1640 HW2           1 RES     
    1789 OW           6.3830     4.0830    10.6870 OW            1 RES     
    1790 HW1          6.0940     3.6280     9.8460 HW1           1 RES     
    1791 HW2          7.1180     3.5570    11.1160 HW2           1 RES     
    1792 OW          -4.7270    17.3080     9.9810 OW            1 RES     
    1793 HW1         -5.1920    18.0650    10.4390 HW1           1 RES     
    1794 HW2         -4.5330    16.5850    10.6440 HW2           1 RES     
    1795 OW           7.0340    17.4530     9.2450 OW            1 RES     
    1796 HW1          7.7610    16.8030     9.4600 HW1           1 RES     
    1797 HW2          7.3290    18.3770     9.4900 HW2           1 RES     
    1798 OW          14.3760     3.4390     2.2830 OW            1 RES     
    1799 HW1         14.0160     2.5290     2.0780 HW1           1 RES     
    1800 HW2         15.3510     3.4690     2.0630 HW2           1 RES     
    1801 OW          -3.1110     3.2760     6.7020 OW            1 RES     
    1802 HW1         -2.1130     3.3110     6.6560 HW1           1 RES     
    1803 HW2         -3.4890     4.1620     6.4320 HW2           1 RES     
    1804 OW          17.5140    -0.1800     2.5690 OW            1 RES     
    1805 HW1         17.9260     0.0470     3.4500 HW1           1 RES     
    1806 HW2         16.5960     0.2140     2.5180 HW2           1 RES     
    1807 OW          10.6390     4.6090    11.7750 OW            1 RES     
    1808 HW1         11.4410     4.1250    11.4290 HW1           1 RES     
    1809 HW2         10.3590     5.3060    11.1150 HW2           1 RES     
    1810 OW           0.0170     3.0770     9.2810 OW            1 RES     
    1811 HW1         -0.5980     3.8650     9.2910 HW1           1 RES     
    1812 HW2          0.9410     3.3720     9.5270 HW2           1 RES     
    1813 OW           1.4760    21.6280     3.6090 OW            1 RES     
    1814 HW1          1.0300    22.4850     3.8650 HW1           1 RES     
    1815 HW2          1.8420    21.1850     4.4270 HW2           1 RES     
    1816 OW          -4.3880     7.2250     8.5420 OW            1 RES     
    1817 HW1         -4.0410     6.6590     7.7950 HW1           1 RES     
    1818 HW2         -3.8240     8.0460     8.6300 HW2           1 RES     
    1819 OW           8.8350     3.0680     7.6820 OW            1 RES     
    1820 HW1          8.8020     2.1270     8.0180 HW1           1 RES     
    1821 HW2          7.9520     3.5100     7.8400 HW2           1 RES     
    1822 OW          -0.7890     5.0330     6.2460 OW            1 RES     
    1823 HW1         -0.0970     5.7530     6.2960 HW1           1 RES     
    1824 HW2         -1.7000     5.4450     6.2600 HW2           1 RES     
    1825 OW          -2.4770    14.5940    12.2510 OW            1 RES     
    1826 HW1         -3.4440    14.3440    12.2850 HW1           1 RES     
    1827 HW2         -2.0530    14.1810    11.4450 HW2           1 RES     
    1828 OW           6.2740    15.9430     6.0790 OW            1 RES     
    1829 HW1          5.7940    16.7910     5.8570 HW1           1 RES     
    1830 HW2          7.2320    16.1440     6.2810 HW2           1 RES     
    1831 OW          -5.5310     8.1820    10.6310 OW            1 RES     
    1832 HW1         -5.4510     8.8480     9.8900 HW1           1 RES     
    1833 HW2         -6.4960     8.0530    10.8610 HW2           1 RES     
    1834 OW           7.4440    22.1480     4.9410 OW            1 RES     
    1835 HW1          6.9470    21.3010     5.1290 HW1           1 RES     
    1836 HW2          6.8780    22.9310     5.1980 HW2           1 RES     
    1837 OW          -8.7440    21.7290    15.8630 OW            1 RES     
    1838 HW1         -9.4710    21.0870    15.6230 HW1           1 RES     
    1839 HW2         -8.9250    22.6140    15.4320 HW2           1 RES     
    1840 OW          12.6470    12.4300    12.4660 OW            1 RES     
    1841 HW1         11.9780    12.8790    13.0580 HW1           1 RES     
    1842 HW2         12.1740    11.8180    11.8320 HW2           1 RES     
    1843 OW          -7.0400    17.2710     3.8490 OW            1 RES     
    1844 HW1         -7.4430    16.3580     3.8020 HW1           1 RES     
    1845 HW2         -7.7670    17.9580     3.8330 HW2           1 RES     
    1846 OW          15.1990    16.0690     2.0800 OW            1 RES     
    1847 HW1         16.0380    15.5260     2.0510 HW1           1 RES     
    1848 HW2         14.4060    15.4590     2.0790 HW2           1 RES     
    1849 OW          11.6300    14.3840     2.9520 OW            1 RES     
    1850 HW1         11.4360    14.6680     3.8900 HW1           1 RES     
    1851 HW2         12.6190    14.3820     2.8020 HW2           1 RES     
    1852 OW          10.7590    18.5790     8.4540 OW            1 RES     
    1853 HW1         10.3910    17.7890     7.9650 HW1           1 RES     
    1854 HW2         11.2240    19.1850     7.8090 HW2           1 RES     
    1855 OW          13.9320     3.0490     9.7140 OW            1 RES     
    1856 HW1         14.3400     2.1480     9.5720 HW1           1 RES     
    1857 HW2         12.9450     2.9520     9.8450 HW2           1 RES     
    1858 OW           1.5620     0.8670     7.8850 OW            1 RES     
    1859 HW1          1.1580     0.7780     6.9750 HW1           1 RES     
    1860 HW2          1.6470     1.8360     8.1190 HW2           1 RES     
    1861 OW          12.5440    13.0990    15.8970 OW            1 RES     
    1862 HW1         12.8540    12.1490    15.8940 HW1           1 RES     
    1863 HW2         11.5440    13.1240    15.8870 HW2           1 RES     
    1864 OW          12.1950    14.6940    10.7180 OW            1 RES     
    1865 HW1         12.7900    13.9000    10.8350 HW1           1 RES     
    1866 HW2         12.7530    15.5220    10.6500 HW2           1 RES     
    1867 OW          -5.3340     9.9410    15.3330 OW            1 RES     
    1868 HW1         -6.2110     9.6080    15.6780 HW1           1 RES     
    1869 HW2         -5.0210    10.7040    15.8980 HW2           1 RES     
    1870 OW           2.3840    18.4200    11.1740 OW            1 RES     
    1871 HW1          3.3640    18.4730    11.3620 HW1           1 RES     
    1872 HW2          2.1070    17.4610    11.1120 HW2           1 RES     
    1873 OW          -0.7230     6.3500     8.3480 OW            1 RES     
    1874 HW1         -0.4470     6.7890     9.2020 HW1           1 RES     
    1875 HW2         -1.6440     6.6500     8.1000 HW2           1 RES     
    1876 OW          14.5600    19.7700    13.4410 OW            1 RES     
    1877 HW1         14.5500    20.7360    13.6940 HW1           1 RES     
    1878 HW2         15.4840    19.4040    13.5550 HW2           1 RES     
    1879 OW          17.9310     9.0650    11.6680 OW            1 RES     
    1880 HW1         17.5920     9.9900    11.8370 HW1           1 RES     
    1881 HW2         17.8490     8.5220    12.5040 HW2           1 RES     
    1882 OW          -8.7220     5.1420     7.6940 OW            1 RES     
    1883 HW1         -8.5090     4.8000     6.7800 HW1           1 RES     
    1884 HW2         -9.1220     6.0560     7.6230 HW2           1 RES     
    1885 OW           0.2730    20.4150     6.9430 OW            1 RES     
    1886 HW1         -0.4110    21.1400     6.8770 HW1           1 RES     
    1887 HW2         -0.1550    19.5330     6.7450 HW2           1 RES     
    1888 OW           3.3390    -0.4210     8.0590 OW            1 RES     
    1889 HW1          3.9560    -1.1150     8.4260 HW1           1 RES     
    1890 HW2          3.7320     0.4870     8.2060 HW2           1 RES     
    1891 OW          -5.9000     1.7540     8.2380 OW            1 RES     
    1892 HW1         -4.9560     2.0550     8.1060 HW1           1 RES     
    1893 HW2         -5.9050     0.8510     8.6680 HW2           1 RES     
    1894 OW           6.3700    10.5500     8.1480 OW            1 RES     
    1895 HW1          6.7470     9.7570     7.6710 HW1           1 RES     
    1896 HW2          6.9400    10.7640     8.9420 HW2           1 RES     
    1897 OW           7.0090     1.3600    11.1490 OW            1 RES     
    1898 HW1          6.0490     1.6220    11.2420 HW1           1 RES     
    1899 HW2          7.1990     1.1200    10.1970 HW2           1 RES     
    1900 OW          -7.5510    17.7420    11.2550 OW            1 RES     
    1901 HW1         -7.0470    18.5350    11.5950 HW1           1 RES     
    1902 HW2         -7.8010    17.8900    10.2980 HW2           1 RES     
    1903 OW          -2.4530    11.4200     5.5460 OW            1 RES     
    1904 HW1         -1.5570    11.8020     5.7680 HW1           1 RES     
    1905 HW2         -2.7890    10.8830     6.3200 HW2           1 RES     
    1906 OW           6.9000    21.3930     7.7240 OW            1 RES     
    1907 HW1          7.8360    21.7430     7.7220 HW1           1 RES     
    1908 HW2          6.2570    22.1590     7.7270 HW2           1 RES     
    1909 OW          -5.1660     4.6980     9.6770 OW            1 RES     
    1910 HW1         -5.8340     5.1010    10.3030 HW1           1 RES     
    1911 HW2         -5.1720     3.7030     9.7780 HW2           1 RES     
    1912 OW           0.7410     9.1810     2.4730 OW            1 RES     
    1913 HW1          1.0460     9.9890     2.9770 HW1           1 RES     
    1914 HW2         -0.0110     9.4330     1.8640 HW2           1 RES     
    1915 OW          10.3810     2.5730     6.1860 OW            1 RES     
    1916 HW1          9.9670     1.6640     6.2100 HW1           1 RES     
    1917 HW2         11.3780     2.4870     6.1910 HW2           1 RES     
    1918 OW          -5.1730     7.3710     5.3960 OW            1 RES     
    1919 HW1         -5.4680     7.8540     6.2200 HW1           1 RES     
    1920 HW2         -5.0110     6.4080     5.6130 HW2           1 RES     
    1921 OW           6.9090     3.4530     2.7810 OW            1 RES     
    1922 HW1          6.0330     3.0180     2.5710 HW1           1 RES     
    1923 HW2          7.4510     2.8470     3.3630 HW2           1 RES     
    1924 OW          12.7300    13.9030     7.4000 OW            1 RES     
    1925 HW1         13.0950    13.3950     6.6200 HW1           1 RES     
    1926 HW2         13.4850    14.2500     7.9560 HW2           1 RES     
    1927 OW          -0.5980    17.0800     7.0260 OW            1 RES     
    1928 HW1          0.3540    17.3850     7.0220 HW1           1 RES     
    1929 HW2         -0.6330    16.0940     7.1880 HW2           1 RES     
    1930 OW           5.9120    20.9840     1.7480 OW            1 RES     
    1931 HW1          4.9840    20.6640     1.9360 HW1           1 RES     
    1932 HW2          6.5020    20.2000     1.5550 HW2           1 RES     
    1933 OW          -3.4820     9.9860     1.5560 OW            1 RES     
    1934 HW1         -2.5390     9.6570     1.5550 HW1           1 RES     
    1935 HW2         -3.4870    10.9870     1.5620 HW2           1 RES     
    1936 OW          -1.0960     1.1800     9.8930 OW            1 RES     
    1937 HW1         -0.1640     0.9160     9.6490 HW1           1 RES     
    1938 HW2         -1.6450     0.3580    10.0510 HW2           1 RES     
    1939 OW          14.3290    10.0720     5.4130 OW            1 RES     
    1940 HW1         14.9280     9.5480     6.0170 HW1           1 RES     
    1941 HW2         14.1780     9.5610     4.5670 HW2           1 RES     
    1942 OW           3.0180     1.1100     5.5770 OW            1 RES     
    1943 HW1          3.2210     0.1340     5.5130 HW1           1 RES     
    1944 HW2          3.6030     1.5290     6.2720 HW2           1 RES     
    1945 OW          -5.5270    12.7080     7.8660 OW            1 RES     
    1946 HW1         -4.8360    12.4320     7.1990 HW1           1 RES     
    1947 HW2         -5.4850    12.1010     8.6610 HW2           1 RES     
    1948 OW          14.9360    12.2240     6.9450 OW            1 RES     
    1949 HW1         14.3500    11.4420     7.1530 HW1           1 RES     
    1950 HW2         15.0920    12.7560     7.7770 HW2           1 RES     
    1951 OW           3.1310     8.1250    13.9890 OW            1 RES     
    1952 HW1          2.4960     8.6990    13.4730 HW1           1 RES     
    1953 HW2          3.1670     8.4360    14.9390 HW2           1 RES     
    1954 OW           5.8300     4.5120    13.9040 OW            1 RES     
    1955 HW1          6.4430     4.3370    13.1340 HW1           1 RES     
    1956 HW2          6.3180     4.3530    14.7620 HW2           1 RES     
    1957 OW           9.3170     7.8450    13.0560 OW            1 RES     
    1958 HW1         10.1250     8.4320    13.0310 HW1           1 RES     
    1959 HW2          9.2830     7.3620    13.9320 HW2           1 RES     
    1960 OW          -6.5170    -1.0530     5.2850 OW            1 RES     
    1961 HW1         -6.5410    -0.9680     4.2900 HW1           1 RES     
    1962 HW2         -5.5670    -1.1160     5.5920 HW2           1 RES     
    1963 OW           4.0400    12.1020     1.5550 OW            1 RES     
    1964 HW1          4.1690    13.0910     1.6170 HW1           1 RES     
    1965 HW2          4.2720    11.6790     2.4310 HW2           1 RES     
    1966 OW           3.9360     5.4250    15.6260 OW            1 RES     
    1967 HW1          3.0050     5.0750    15.5220 HW1           1 RES     
    1968 HW2          3.9210     6.4250    15.6010 HW2           1 RES     
    1969 OW          -8.3430    11.7120     2.8730 OW            1 RES     
    1970 HW1         -7.9840    10.7800     2.8350 HW1           1 RES     
    1971 HW2         -7.5830    12.3630     2.8790 HW2           1 RES     
    1972 OW          -4.5570    18.1030     2.0750 OW            1 RES     
    1973 HW1         -5.3610    18.5300     1.6640 HW1           1 RES     
    1974 HW2         -3.8400    18.7890     2.1980 HW2           1 RES     
    1975 OW           0.2030    17.3450     4.5340 OW            1 RES     
    1976 HW1          0.8340    16.7040     4.9710 HW1           1 RES     
    1977 HW2          0.4580    18.2810     4.7750 HW2           1 RES     
    1978 OW          15.3130     6.0690     4.4040 OW            1 RES     
    1979 HW1         14.8950     5.1670     4.5060 HW1           1 RES     
    1980 HW2         14.5960     6.7630     4.3330 HW2           1 RES     
    1981 OW           0.1000    15.7400     2.7320 OW            1 RES     
    1982 HW1         -0.2110    15.3310     3.5890 HW1           1 RES     
    1983 HW2          1.0220    16.1080     2.8510 HW2           1 RES     
    1984 OW          -1.2300    16.6690    11.9030 OW            1 RES     
    1985 HW1         -0.8240    16.0040    11.2770 HW1           1 RES     
    1986 HW2         -0.5320    17.3260    12.1910 HW2           1 RES     
    1987 OW          12.5540     4.8260    13.7810 OW            1 RES     
    1988 HW1         11.5910     4.9960    13.9900 HW1           1 RES     
    1989 HW2         13.1060     5.5950    14.1020 HW2           1 RES     
    1990 OW           0.7770    14.1500    11.7470 OW            1 RES     
    1991 HW1          1.4960    13.5240    12.0480 HW1           1 RES     
    1992 HW2          1.1060    15.0920    11.8130 HW2           1 RES     
    1993 OW          -8.9430     3.8440    13.4360 OW            1 RES     
    1994 HW1         -9.1000     4.2750    14.3240 HW1           1 RES     
    1995 HW2         -9.0260     4.5300    12.7130 HW2           1 RES     
    1996 OW          12.4040    11.8120     4.3680 OW            1 RES     
    1997 HW1         12.0300    11.0890     4.9470 HW1           1 RES     
    1998 HW2         11.7020    12.5070     4.2070 HW2           1 RES     
    1999 OW          -6.4080    10.5740    13.4760 OW            1 RES     
    2000 HW1         -7.2520    10.1650    13.8210 HW1           1 RES     
    2001 HW2         -6.4190    11.5590    13.6480 HW2           1 RES     
    2002 OW          -2.0610     6.6710    15.8980 OW            1 RES     
    2003 HW1         -2.5420     6.6380    15.0230 HW1           1 RES     
    2004 HW2         -1.1690     7.1050    15.7720 HW2           1 RES     
    2005 OW          14.9610    10.0300     1.7540 OW            1 RES     
    2006 HW1         15.8400    10.4650     1.5640 HW1           1 RES     
    2007 HW2         15.0790     9.0370     1.7840 HW2           1 RES     
    2008 OW          -7.6330    22.4630     4.9590 OW            1 RES     
    2009 HW1         -6.8130    22.9470     4.6550 HW1           1 RES     
    2010 HW2         -7.4410    21.4830     5.0150 HW2           1 RES     
    2011 OW          -5.8600    15.7670     1.5560 OW            1 RES     
    2012 HW1         -6.3840    16.5560     1.8740 HW1           1 RES     
    2013 HW2         -4.8850    15.9880     1.5660 HW2           1 RES     
    2014 OW           8.0540    22.7480     9.6670 OW            1 RES     
    2015 HW1          9.0370    22.5650     9.6620 HW1           1 RES     
    2016 HW2          7.6030    22.1270    10.3080 HW2           1 RES     
    2017 OW          -2.0880    14.7470     5.6160 OW            1 RES     
    2018 HW1         -2.3080    13.8190     5.3150 HW1           1 RES     
    2019 HW2         -2.3520    14.8580     6.5740 HW2           1 RES     
    2020 OW           0.1800    22.5080     9.3080 OW            1 RES     
    2021 HW1          0.8040    21.9640     8.7480 HW1           1 RES     
    2022 HW2         -0.6010    21.9460     9.5800 HW2           1 RES     
    2023 OW           0.9580    -0.5890    11.5570 OW            1 RES     
    2024 HW1          1.0290     0.3990    11.4240 HW1           1 RES     
    2025 HW2          0.0110    -0.8770    11.4170 HW2           1 RES     
    2026 OW          14.3900     5.1570    10.3790 OW            1 RES     
    2027 HW1         13.6890     5.7690    10.7460 HW1           1 RES     
    2028 HW2         15.1550     5.6970    10.0290 HW2           1 RES     
    2029 OW          -4.9730    21.6030    12.3120 OW            1 RES     
    2030 HW1         -5.8190    21.2740    11.8940 HW1           1 RES     
    2031 HW2         -4.3240    20.8460    12.3930 HW2           1 RES     
    2032 OW           0.0090    15.1210    14.1560 OW            1 RES     
    2033 HW1         -0.6070    15.8500    13.8580 HW1           1 RES     
    2034 HW2         -0.4720    14.2450    14.1270 HW2           1 RES     
    2035 OW           3.1930    17.7390     5.9200 OW            1 RES     
    2036 HW1          3.2040    17.0420     6.6360 HW1           1 RES     
    2037 HW2          3.4010    17.3140     5.0380 HW2           1 RES     
    2038 OW          -0.2370    -0.5880     8.0440 OW            1 RES     
    2039 HW1         -0.8990    -1.1090     8.5820 HW1           1 RES     
    2040 HW2          0.6080    -1.1160     7.9520 HW2           1 RES     
    2041 OW          11.5520     7.3100    10.9710 OW            1 RES     
    2042 HW1         11.9720     6.9930    10.1210 HW1           1 RES     
    2043 HW2         11.5780     8.3100    11.0030 HW2           1 RES     
    2044 OW          17.3840    19.6200     4.4080 OW            1 RES     
    2045 HW1         17.8830    18.9990     5.0120 HW1           1 RES     
    2046 HW2         17.6860    20.5590     4.5730 HW2           1 RES     
    2047 OW          11.5050    16.7750    11.9780 OW            1 RES     
    2048 HW1         10.8370    16.2820    11.4210 HW1           1 RES     
    2049 HW2         11.0260    17.3510    12.6400 HW2           1 RES     
    2050 OW          16.1630     3.0090     6.7470 OW            1 RES     
    2051 HW1         15.4580     2.4140     6.3630 HW1           1 RES     
    2052 HW2         16.4100     3.7100     6.0780 HW2           1 RES     
    2053 OW          12.5870    19.2100    15.2500 OW            1 RES     
    2054 HW1         12.6400    18.5690    14.4850 HW1           1 RES     
    2055 HW2         12.7810    20.1350    14.9250 HW2           1 RES     
    2056 OW          11.4070    16.2280     6.1300 OW            1 RES     
    2057 HW1         11.4490    15.6350     6.9340 HW1           1 RES     
    2058 HW2         10.4960    16.6350     6.0620 HW2           1 RES     
    2059 OW           8.9360     5.0300    14.0090 OW            1 RES     
    2060 HW1          8.0970     5.5310    14.2160 HW1           1 RES     
    2061 HW2          8.7680     4.0480    14.0920 HW2           1 RES     
    2062 OW           3.6740     2.1580    15.4340 OW            1 RES     
    2063 HW1          2.7950     2.0510    15.8980 HW1           1 RES     
    2064 HW2          4.2980     1.4330    15.7270 HW2           1 RES     
    2065 OW           6.6770    11.4460     2.2650 OW            1 RES     
    2066 HW1          7.3790    11.3950     1.5550 HW1           1 RES     
    2067 HW2          6.1940    10.5710     2.3200 HW2           1 RES     
    2068 OW           8.5260    16.1800    15.1730 OW            1 RES     
    2069 HW1          8.0440    16.3700    14.3180 HW1           1 RES     
    2070 HW2          9.3500    16.7450    15.2240 HW2           1 RES     
    2071 OW          -9.3530    10.6740    12.8000 OW            1 RES     
    2072 HW1         -9.7920     9.8100    13.0450 HW1           1 RES     
    2073 HW2         -9.7920    11.0520    11.9850 HW2           1 RES     
    2074 OW           5.9750    -0.5760    11.2880 OW            1 RES     
    2075 HW1          5.1450    -1.0950    11.4910 HW1           1 RES     
    2076 HW2          6.7770    -1.1150    11.5460 HW2           1 RES     
    2077 OW          13.3130    15.9030    15.8950 OW            1 RES     
    2078 HW1         13.1530    16.8890    15.8980 HW1           1 RES     
    2079 HW2         14.2970    15.7240    15.8910 HW2           1 RES     
    2080 OW          17.9300     2.2160     1.9910 OW            1 RES     
    2081 HW1         17.0330     2.1440     1.5570 HW1           1 RES     
    2082 HW2         17.8210     2.2300     2.9850 HW2           1 RES     
    2083 OW          -4.1850    12.6220     4.9160 OW            1 RES     
    2084 HW1         -4.4640    11.9310     4.2510 HW1           1 RES     
    2085 HW2         -4.9510    13.2380     5.0990 HW2           1 RES     
    2086 OW          17.2570     9.7320     6.9290 OW            1 RES     
    2087 HW1         16.6090    10.4340     7.2220 HW1           1 RES     
    2088 HW2         17.8010    10.0770     6.1640 HW2           1 RES     
    2089 OW          -7.9730     4.3870     3.0350 OW            1 RES     
    2090 HW1         -7.3470     5.1640     2.9920 HW1           1 RES     
    2091 HW2         -8.8660     4.6560     2.6750 HW2           1 RES     
    2092 OW           8.1010     0.9890     1.9170 OW            1 RES     
    2093 HW1          8.4000     0.1070     1.5550 HW1           1 RES     
    2094 HW2          8.8350     1.3930     2.4630 HW2           1 RES     
    2095 OW           7.4940     2.5200     5.5390 OW            1 RES     
    2096 HW1          8.3780     2.9500     5.3590 HW1           1 RES     
    2097 HW2          6.7840     3.2220     5.5870 HW2           1 RES     
    2098 OW          -8.7200     0.4950    12.3350 OW            1 RES     
    2099 HW1         -9.6850     0.7550    12.3530 HW1           1 RES     
    2100 HW2         -8.1510     1.3160    12.3820 HW2           1 RES     
    2101 OW          -9.1420    20.4480     9.2970 OW            1 RES     
    2102 HW1         -9.4060    20.3400     8.3390 HW1           1 RES     
    2103 HW2         -9.7920    19.9590     9.8790 HW2           1 RES     
    2104 OW           6.2390    13.0850     7.8510 OW            1 RES     
    2105 HW1          7.1190    12.9400     8.3020 HW1           1 RES     
    2106 HW2          5.7530    13.8350     8.3000 HW2           1 RES     
    2107 OW          -4.9710     4.1660    14.9430 OW            1 RES     
    2108 HW1         -4.1340     3.8390    14.5060 HW1           1 RES     
    2109 HW2         -4.7450     4.6060    15.8120 HW2           1 RES     
    2110 OW          -4.4810    12.5420    10.5680 OW            1 RES     
    2111 HW1         -3.7060    12.3280    11.1620 HW1           1 RES     
    2112 HW2         -4.2670    13.3500    10.0180 HW2           1 RES     
    2113 OW           9.1570     5.0450     5.7120 OW            1 RES     
    2114 HW1          9.7950     5.1410     6.4750 HW1           1 RES     
    2115 HW2          8.2420     5.3220     6.0050 HW2           1 RES     
    2116 OW           3.6550     7.9410     5.3050 OW            1 RES     
    2117 HW1          3.2790     7.0490     5.0570 HW1           1 RES     
    2118 HW2          2.9260     8.6250     5.2970 HW2           1 RES     
    2119 OW          -0.8350    20.3910     4.8370 OW            1 RES     
    2120 HW1         -1.6780    20.9270     4.8610 HW1           1 RES     
    2121 HW2         -0.6870    20.0450     3.9100 HW2           1 RES     
    2122 OW           4.2770     7.3200    12.2820 OW            1 RES     
    2123 HW1          4.4520     6.3720    12.5480 HW1           1 RES     
    2124 HW2          4.9140     7.5860    11.5580 HW2           1 RES     
    2125 OW          14.4360    -0.3830     6.3170 OW            1 RES     
    2126 HW1         13.9730     0.4310     6.6640 HW1           1 RES     
    2127 HW2         13.7650    -1.1060     6.1540 HW2           1 RES     
    2128 OW           8.2960     0.4350     5.4700 OW            1 RES     
    2129 HW1          9.0120    -0.2240     5.2390 HW1           1 RES     
    2130 HW2          7.6330     0.0060     6.0840 HW2           1 RES     
    2131 OW          16.9350     4.7030     3.8190 OW            1 RES     
    2132 HW1         17.9310     4.6430     3.7630 HW1           1 RES     
    2133 HW2         16.5480     3.7830     3.8830 HW2           1 RES     
    2134 OW          -0.8600    12.3520    15.6050 OW            1 RES     
    2135 HW1         -1.2740    13.2130    15.8970 HW1           1 RES     
    2136 HW2          0.1050    12.5010    15.3900 HW2           1 RES     
    2137 OW           7.5470     9.6090    12.6760 OW            1 RES     
    2138 HW1          7.5980     8.8920    11.9810 HW1           1 RES     
    2139 HW2          7.3530     9.1970    13.5670 HW2           1 RES     
    2140 OW          14.4890     6.7880     8.1350 OW            1 RES     
    2141 HW1         13.5210     6.5710     8.0130 HW1           1 RES     
    2142 HW2         14.6090     7.7810     8.1450 HW2           1 RES     
    2143 OW          -1.5390     5.8230     2.1990 OW            1 RES     
    2144 HW1         -2.3050     5.1860     2.1230 HW1           1 RES     
    2145 HW2         -0.9210     5.5170     2.9230 HW2           1 RES     
    2146 OW           9.6930    15.7910     9.1210 OW            1 RES     
    2147 HW1          9.0510    15.0340     9.2380 HW1           1 RES     
    2148 HW2         10.6300    15.4460     9.1750 HW2           1 RES     
    2149 OW           9.5200     7.3710     6.0720 OW            1 RES     
    2150 HW1          9.0380     8.1950     6.3680 HW1           1 RES     
    2151 HW2         10.4710     7.4130     6.3780 HW2           1 RES     
    2152 OW          -1.2520    19.5210     8.6510 OW            1 RES     
    2153 HW1         -0.3630    19.8450     8.9720 HW1           1 RES     
    2154 HW2         -1.8930    20.2880     8.6150 HW2           1 RES     
    2155 OW           2.5240    12.7740     4.9650 OW            1 RES     
    2156 HW1          2.6080    12.0990     4.2340 HW1           1 RES     
    2157 HW2          1.8120    12.4860     5.6060 HW2           1 RES     
    2158 OW          -8.2520    13.5140     5.8610 OW            1 RES     
    2159 HW1         -8.0940    12.9360     6.6610 HW1           1 RES     
    2160 HW2         -7.3860    13.9170     5.5640 HW2           1 RES     
    2161 OW           8.2280     5.8590    11.1430 OW            1 RES     
    2162 HW1          8.3000     5.2670    10.3410 HW1           1 RES     
    2163 HW2          8.1590     5.2980    11.9680 HW2           1 RES     
    2164 OW           5.5670    17.3490    11.3820 OW            1 RES     
    2165 HW1          6.5640    17.2860    11.3910 HW1           1 RES     
    2166 HW2          5.2660    17.7560    10.5190 HW2           1 RES     
    2167 OW          -3.4900     8.6700    15.8540 OW            1 RES     
    2168 HW1         -4.2160     7.9840    15.8980 HW1           1 RES     
    2169 HW2         -3.3710     8.9710    14.9080 HW2           1 RES     
    2170 OW           5.5500     0.1980    14.0610 OW            1 RES     
    2171 HW1          5.0840    -0.5730    13.6280 HW1           1 RES     
    2172 HW2          5.7710    -0.0340    15.0080 HW2           1 RES     
    2173 OW           7.7010     6.6740     8.1690 OW            1 RES     
    2174 HW1          7.7610     5.6770     8.1690 HW1           1 RES     
    2175 HW2          7.7860     7.0130     9.1060 HW2           1 RES     
    2176 OW           9.3250    20.3210    15.3700 OW            1 RES     
    2177 HW1          8.5660    20.7010    15.8970 HW1           1 RES     
    2178 HW2          9.9540    21.0540    15.1120 HW2           1 RES     
    2179 OW          -6.8600    -1.1170    12.0910 OW            1 RES     
    2180 HW1         -6.2220    -1.1090    12.8610 HW1           1 RES     
    2181 HW2         -6.3700    -0.8900    11.2490 HW2           1 RES     
    2182 OW          17.4070    18.5020    12.8420 OW            1 RES     
    2183 HW1         17.8730    18.3780    11.9670 HW1           1 RES     
    2184 HW2         17.8830    17.9810    13.5510 HW2           1 RES     
    2185 OW          17.0370     3.2690    10.9950 OW            1 RES     
    2186 HW1         17.1090     3.4840    11.9690 HW1           1 RES     
    2187 HW2         16.0840     3.0700    10.7670 HW2           1 RES     
    2188 OW           6.3260    17.8220    15.5570 OW            1 RES     
    2189 HW1          6.1370    16.8770    15.2930 HW1           1 RES     
    2190 HW2          7.3120    17.9460    15.6710 HW2           1 RES     
    2191 OW          16.7440    12.2730     9.9740 OW            1 RES     
    2192 HW1         16.7360    11.4160     9.4590 HW1           1 RES     
    2193 HW2         16.2280    12.1580    10.8230 HW2           1 RES     
    2194 OW          -6.1870     2.1980    11.3040 OW            1 RES     
    2195 HW1         -7.0150     2.3290    10.7590 HW1           1 RES     
    2196 HW2         -6.2350     2.7650    12.1270 HW2           1 RES     
    2197 OW           2.7800     3.6780    13.2220 OW            1 RES     
    2198 HW1          2.4110     2.7530    13.1340 HW1           1 RES     
    2199 HW2          2.0290     4.3270    13.3470 HW2           1 RES     
    2200 OW           2.2540     3.4400     1.8240 OW            1 RES     
    2201 HW1          3.1280     3.8420     1.5550 HW1           1 RES     
    2202 HW2          2.3190     2.4430     1.7860 HW2           1 RES     
    2203 OW          -0.1620    -0.1920    13.5040 OW            1 RES     
    2204 HW1         -0.4000    -0.3760    14.4570 HW1           1 RES     
    2205 HW2         -0.9300     0.2590    13.0490 HW2           1 RES     
    2206 OW          17.9210     8.1950     2.6840 OW            1 RES     
    2207 HW1         17.5780     7.3090     2.9920 HW1           1 RES     
    2208 HW2         17.1510     8.8030     2.4910 HW2           1 RES     
    2209 OW          -5.6320     2.7310     2.6450 OW            1 RES     
    2210 HW1         -5.7010     2.0650     3.3870 HW1           1 RES     
    2211 HW2         -5.4030     3.6280     3.0220 HW2           1 RES     
    2212 OW           9.5510     9.4530     8.2240 OW            1 RES     
    2213 HW1          8.7740     8.8660     8.4490 HW1           1 RES     
    2214 HW2         10.3490     8.8860     8.0170 HW2           1 RES     
    2215 OW          10.9050    21.0280     6.6510 OW            1 RES     
    2216 HW1         11.2140    21.5890     5.8840 HW1           1 RES     
    2217 HW2          9.9730    20.7080     6.4760 HW2           1 RES     
    2218 OW           9.1150     2.6920    10.6420 OW            1 RES     
    2219 HW1         10.0430     2.4930    10.9520 HW1           1 RES     
    2220 HW2          9.1510     3.2990     9.8470 HW2           1 RES     
    2221 OW          -7.3890     9.9790    11.4380 OW            1 RES     
    2222 HW1         -8.2700     9.5470    11.2520 HW1           1 RES     
    2223 HW2         -7.4900    10.9740    11.4000 HW2           1 RES     
    2224 OW           6.1420    15.7400    13.4100 OW            1 RES     
    2225 HW1          6.1630    14.8180    13.0240 HW1           1 RES     
    2226 HW2          5.1930    16.0480    13.4860 HW2           1 RES     
    2227 OW          -0.4700    20.4970    12.0720 OW            1 RES     
    2228 HW1          0.1810    21.0860    11.5950 HW1           1 RES     
    2229 HW2         -0.1560    20.3450    13.0100 HW2           1 RES     
    2230 OW          15.9240    21.6240     2.1830 OW            1 RES     
    2231 HW1         15.3960    21.0010     1.6070 HW1           1 RES     
    2232 HW2         16.7180    21.9580     1.6740 HW2           1 RES     
    2233 OW          14.8190    17.8750     4.9690 OW            1 RES     
    2234 HW1         14.4820    16.9350     4.9780 HW1           1 RES     
    2235 HW2         15.8190    17.8710     4.9340 HW2           1 RES     
    2236 OW           2.2880    13.8240     2.4920 OW            1 RES     
    2237 HW1          1.6360    14.0270     3.2220 HW1           1 RES     
    2238 HW2          1.7980    13.4630     1.6980 HW2           1 RES     
    2239 OW           9.7850    10.4140     1.9320 OW            1 RES     
    2240 HW1         10.1070     9.5430     1.5630 HW1           1 RES     
    2241 HW2         10.4080    11.1450     1.6540 HW2           1 RES     
    2242 OW          -9.0510    20.7210    12.0390 OW            1 RES     
    2243 HW1         -8.0800    20.4900    11.9750 HW1           1 RES     
    2244 HW2         -9.5830    19.8870    12.1890 HW2           1 RES     
    2245 OW          -0.0270    12.1460     7.3420 OW            1 RES     
    2246 HW1         -0.0590    13.1450     7.3490 HW1           1 RES     
    2247 HW2          0.9110    11.8400     7.5060 HW2           1 RES     
    2248 OW           9.3070    10.0180    10.5630 OW            1 RES     
    2249 HW1          9.5720     9.0560    10.4950 HW1           1 RES     
    2250 HW2         10.1080    10.5960    10.4110 HW2           1 RES     
    2251 OW          10.9780    11.0630    13.7950 OW            1 RES     
    2252 HW1         11.5180    10.9440    14.6280 HW1           1 RES     
    2253 HW2         10.1670    10.4790    13.8370 HW2           1 RES     
    2254 OW          -6.3870     3.4020     5.5430 OW            1 RES     
    2255 HW1         -5.9910     2.5150     5.7770 HW1           1 RES     
    2256 HW2         -7.3770     3.3090     5.4370 HW2           1 RES     
    2257 OW          -0.6200     9.1910     7.3910 OW            1 RES     
    2258 HW1         -0.8590     9.9170     6.7470 HW1           1 RES     
    2259 HW2         -1.4540     8.8230     7.8030 HW2           1 RES     
    2260 OW           0.1410    17.1980     9.6580 OW            1 RES     
    2261 HW1         -0.7650    17.6070     9.7600 HW1           1 RES     
    2262 HW2          0.7990    17.9060     9.3990 HW2           1 RES     
    2263 OW          13.6500     0.6640    15.8470 OW            1 RES     
    2264 HW1         14.3170     0.0180    15.4780 HW1           1 RES     
    2265 HW2         12.7800     0.5570    15.3640 HW2           1 RES     
    2266 OW          11.1790     1.6520     3.8710 OW            1 RES     
    2267 HW1         10.4540     2.3320     3.9690 HW1           1 RES     
    2268 HW2         10.7730     0.7440     3.7660 HW2           1 RES     
    2269 OW          15.9970     9.5430    15.8980 OW            1 RES     
    2270 HW1         16.1850     8.6420    15.5100 HW1           1 RES     
    2271 HW2         15.9610    10.2220    15.1640 HW2           1 RES     
    2272 OW           6.4730    11.6660    13.6190 OW            1 RES     
    2273 HW1          7.3270    11.3800    14.0530 HW1           1 RES     
    2274 HW2          5.8830    10.8700    13.4870 HW2           1 RES     
    2275 OW          -1.0870    11.7850    12.9350 OW            1 RES     
    2276 HW1         -0.4370    12.5230    12.7580 HW1           1 RES     
    2277 HW2         -1.9880    12.0400    12.5820 HW2           1 RES     
    2278 OW          -2.9850     4.0120     8.7710 OW            1 RES     
    2279 HW1         -3.0670     5.0040     8.8680 HW1           1 RES     
    2280 HW2         -2.7530     3.6090     9.6560 HW2           1 RES     
    2281 OW           3.7910    19.8440     5.6980 OW            1 RES     
    2282 HW1          3.5400    20.7500     6.0370 HW1           1 RES     
    2283 HW2          3.4700    19.7400     4.7560 HW2           1 RES     
    2284 OW           3.9250     4.3120    11.3850 OW            1 RES     
    2285 HW1          4.0070     4.0140    10.4340 HW1           1 RES     
    2286 HW2          3.1610     4.9520    11.4690 HW2           1 RES     
    2287 OW          -0.9180    -0.9370     4.0350 OW            1 RES     
    2288 HW1         -0.2230    -1.0940     4.7370 HW1           1 RES     
    2289 HW2         -0.5270    -1.1170     3.1320 HW2           1 RES     
    2290 OW          10.1160    14.1530     5.9950 OW            1 RES     
    2291 HW1         10.6840    13.3310     5.9930 HW1           1 RES     
    2292 HW2          9.1510    13.8920     6.0020 HW2           1 RES     
    2293 OW          17.0160     0.3920     9.7130 OW            1 RES     
    2294 HW1         16.8090     0.8930     8.8740 HW1           1 RES     
    2295 HW2         17.9300     0.6420    10.0340 HW2           1 RES     
    2296 OW          10.3790    21.7780    12.8330 OW            1 RES     
    2297 HW1         11.3680    21.6380    12.7970 HW1           1 RES     
    2298 HW2          9.9420    21.2640    12.0950 HW2           1 RES     
    2299 OW          15.7250     9.0910    12.5900 OW            1 RES     
    2300 HW1         15.5190    10.0060    12.9350 HW1           1 RES     
    2301 HW2         15.7590     8.4460    13.3540 HW2           1 RES     
    2302 OW          13.1740    21.2440     8.9630 OW            1 RES     
    2303 HW1         13.1990    20.3270     9.3590 HW1           1 RES     
    2304 HW2         13.5980    21.8930     9.5950 HW2           1 RES     
    2305 OW           5.3880    10.6200     5.2780 OW            1 RES     
    2306 HW1          4.5470    11.1610     5.2830 HW1           1 RES     
    2307 HW2          5.1590     9.6470     5.2430 HW2           1 RES     
    2308 OW           5.3650     5.1740     6.5610 OW            1 RES     
    2309 HW1          5.4960     4.2930     7.0130 HW1           1 RES     
    2310 HW2          6.0420     5.2790     5.8310 HW2           1 RES     
    2311 OW          13.6320    19.9190     6.9590 OW            1 RES     
    2312 HW1         13.1240    20.4940     6.3180 HW1           1 RES     
    2313 HW2         14.4180    19.5130     6.4930 HW2           1 RES     
    2314 OW          17.3300    20.3600     9.9520 OW            1 RES     
    2315 HW1         16.3990    20.3720     9.5910 HW1           1 RES     
    2316 HW2         17.9300    19.8780     9.3120 HW2           1 RES     
    2317 OW           1.0610     9.7290     5.6770 OW            1 RES     
    2318 HW1          1.5610    10.3630     5.0890 HW1           1 RES     
    2319 HW2          1.3370     9.8680     6.6290 HW2           1 RES     
    2320 OW          -5.2090    17.7910     5.3630 OW            1 RES     
    2321 HW1         -4.6720    17.1710     5.9340 HW1           1 RES     
    2322 HW2         -5.8040    18.3480     5.9430 HW2           1 RES     
    2323 OW          -9.1550    19.9250     4.3810 OW            1 RES     
    2324 HW1         -8.6590    20.0940     3.5300 HW1           1 RES     
    2325 HW2         -9.6180    19.0400     4.3260 HW2           1 RES     
    2326 OW          16.8360    14.4560    12.7850 OW            1 RES     
    2327 HW1         16.4910    15.3800    12.6280 HW1           1 RES     
    2328 HW2         17.6980    14.5020    13.2890 HW2           1 RES     
    2329 OW          11.7390    -0.7690     6.9440 OW            1 RES     
    2330 HW1         11.5210    -1.1140     7.8560 HW1           1 RES     
    2331 HW2         11.4590     0.1880     6.8730 HW2           1 RES     
    2332 OW           3.3330    12.3610    10.8340 OW            1 RES     
    2333 HW1          3.1950    13.0930    10.1670 HW1           1 RES     
    2334 HW2          2.4820    11.8470    10.9460 HW2           1 RES     
    2335 OW           9.4680    12.5450    11.2050 OW            1 RES     
    2336 HW1          8.6540    11.9780    11.3210 HW1           1 RES     
    2337 HW2          9.2140    13.4090    10.7690 HW2           1 RES     
    2338 OW          -6.8920     8.2650     1.9680 OW            1 RES     
    2339 HW1         -6.5910     9.1550     2.3100 HW1           1 RES     
    2340 HW2         -7.8860     8.2680     1.8600 HW2           1 RES     
    2341 OW          10.9190     1.8360     1.6940 OW            1 RES     
    2342 HW1         11.8970     2.0320     1.7600 HW1           1 RES     
    2343 HW2         10.7840     0.8530     1.5640 HW2           1 RES     
    2344 OW           4.7810    22.2930     3.9690 OW            1 RES     
    2345 HW1          4.8700    21.4000     4.4080 HW1           1 RES     
    2346 HW2          3.9730    22.7620     4.3270 HW2           1 RES     
    2347 OW          12.8900     1.0650    12.6340 OW            1 RES     
    2348 HW1         12.5920     1.7550    13.2920 HW1           1 RES     
    2349 HW2         13.7360     1.3660    12.1940 HW2           1 RES     
    2350 OW          -2.8610     0.8840     7.3710 OW            1 RES     
    2351 HW1         -3.0700    -0.0110     7.7640 HW1           1 RES     
    2352 HW2         -2.7060     1.5430     8.1070 HW2           1 RES     
    2353 OW           9.7800    14.1200    13.1970 OW            1 RES     
    2354 HW1          9.8970    15.1120    13.2440 HW1           1 RES     
    2355 HW2         10.1740    13.6990    14.0140 HW2           1 RES     
    2356 OW           8.8700    17.6470    11.3960 OW            1 RES     
    2357 HW1          8.4300    18.2250    12.0820 HW1           1 RES     
    2358 HW2          8.6800    16.6860    11.5970 HW2           1 RES     
    2359 OW          10.8300     2.0160    15.0760 OW            1 RES     
    2360 HW1         11.6120     2.6390    15.0520 HW1           1 RES     
    2361 HW2          9.9840     2.5450    15.1420 HW2           1 RES     
    2362 OW           3.4870     3.9970     7.8600 OW            1 RES     
    2363 HW1          3.3100     4.9810     7.8490 HW1           1 RES     
    2364 HW2          2.9300     3.5660     8.5690 HW2           1 RES     
    2365 OW          -8.1470     0.4110     5.0870 OW            1 RES     
    2366 HW1         -7.3930     0.9970     4.7920 HW1           1 RES     
    2367 HW2         -9.0080     0.9160     5.0210 HW2           1 RES     
    2368 OW          16.6610     7.4940     5.4020 OW            1 RES     
    2369 HW1         16.1860     7.7570     6.2400 HW1           1 RES     
    2370 HW2         16.5250     8.2000     4.7060 HW2           1 RES     
    2371 OW          16.8220    15.0400     4.1430 OW            1 RES     
    2372 HW1         15.9140    15.3030     4.4660 HW1           1 RES     
    2373 HW2         17.1050    14.1920     4.5930 HW2           1 RES     
    2374 OW           8.9180     0.2820    11.3300 OW            1 RES     
    2375 HW1          9.0010    -0.6110    11.7710 HW1           1 RES     
    2376 HW2          9.2970     0.2350    10.4060 HW2           1 RES     
    2377 OW          -1.9070     6.8210    12.9100 OW            1 RES     
    2378 HW1         -2.0000     5.8260    12.9240 HW1           1 RES     
    2379 HW2         -2.8150     7.2410    12.9240 HW2           1 RES     
    2380 OW          -3.7760    -0.5540    10.0370 OW            1 RES     
    2381 HW1         -4.7110    -0.8090     9.7910 HW1           1 RES     
    2382 HW2         -3.7880     0.3070    10.5460 HW2           1 RES     
    2383 OW           7.2460    22.4090     2.7630 OW            1 RES     
    2384 HW1          6.4180    22.9460     2.6040 HW1           1 RES     
    2385 HW2          8.0450    22.9300     2.4630 HW2           1 RES     
    2386 OW          17.9310     1.4750     6.3950 OW            1 RES     
    2387 HW1         17.7280     2.0030     5.5710 HW1           1 RES     
    2388 HW2         17.1060     0.9950     6.6960 HW2           1 RES     
    2389 OW           5.0140     1.4950     4.5850 OW            1 RES     
    2390 HW1          4.9240     2.4880     4.5260 HW1           1 RES     
    2391 HW2          5.9830     1.2460     4.5730 HW2           1 RES     
    2392 OW          -6.6620    12.7900    10.3870 OW            1 RES     
    2393 HW1         -6.4060    13.4920    11.0510 HW1           1 RES     
    2394 HW2         -7.5880    12.9680    10.0540 HW2           1 RES     
    2395 OW           8.5740    14.4510     2.3380 OW            1 RES     
    2396 HW1          9.4400    14.5760     2.8200 HW1           1 RES     
    2397 HW2          7.9790    13.8500     2.8720 HW2           1 RES     
    2398 OW           5.0970     4.7780     3.6480 OW            1 RES     
    2399 HW1          4.3700     4.9600     2.9870 HW1           1 RES     
    2400 HW2          5.7300     5.5510     3.6710 HW2           1 RES     
    2401 OW          14.3750     4.0550     7.4880 OW            1 RES     
    2402 HW1         15.0880     4.7530     7.5530 HW1           1 RES     
    2403 HW2         13.4990     4.4910     7.2800 HW2           1 RES     
    2404 OW           6.2130    14.5210    10.3390 OW            1 RES     
    2405 HW1          6.1310    15.5030    10.1750 HW1           1 RES     
    2406 HW2          7.1340    14.2170    10.0940 HW2           1 RES     
    2407 OW          12.6280    -1.1160    12.5160 OW            1 RES     
    2408 HW1         13.5250    -1.0240    12.9480 HW1           1 RES     
    2409 HW2         12.7040    -0.9070    11.5410 HW2           1 RES     
    2410 OW           3.5880     9.4930     2.5500 OW            1 RES     
    2411 HW1          2.9400     8.8690     2.9860 HW1           1 RES     
    2412 HW2          4.3990     9.5900     3.1280 HW2           1 RES     
    2413 OW           5.1290    12.4260    15.5990 OW            1 RES     
    2414 HW1          4.2360    12.7770    15.8780 HW1           1 RES     
    2415 HW2          5.8440    13.0570    15.8980 HW2           1 RES     
    2416 OW          15.9450     3.2080    14.5310 OW            1 RES     
    2417 HW1         16.5470     2.4300    14.7040 HW1           1 RES     
    2418 HW2         16.4690     4.0570    14.5960 HW2           1 RES     
    2419 OW          -7.0120    21.2750     9.5150 OW            1 RES     
    2420 HW1         -6.6350    22.0580    10.0070 HW1           1 RES     
    2421 HW2         -7.3740    21.5770     8.6330 HW2           1 RES     
    2422 OW          -5.2880    20.1220     3.1810 OW            1 RES     
    2423 HW1         -5.1570    19.4890     3.9430 HW1           1 RES     
    2424 HW2         -5.8730    20.8790     3.4730 HW2           1 RES     
    2425 OW           9.0740    20.0750     3.0480 OW            1 RES     
    2426 HW1          8.1390    20.4240     3.0860 HW1           1 RES     
    2427 HW2          9.3240    19.8930     2.0970 HW2           1 RES     
    2428 OW           0.3680    12.0540     2.5980 OW            1 RES     
    2429 HW1         -0.2100    12.3320     1.8320 HW1           1 RES     
    2430 HW2          0.0580    12.5080     3.4330 HW2           1 RES     
    2431 OW          -3.5150    22.1610     4.1960 OW            1 RES     
    2432 HW1         -3.6730    21.8190     5.1210 HW1           1 RES     
    2433 HW2         -4.1100    22.9470     4.0240 HW2           1 RES     
    2434 OW          -7.2290     5.9080    15.6910 OW            1 RES     
    2435 HW1         -8.1040     6.1290    15.2610 HW1           1 RES     
    2436 HW2         -6.9990     4.9520    15.5080 HW2           1 RES     
    2437 OW          11.4200     0.9780     9.2620 OW            1 RES     
    2438 HW1         12.1580     1.2740     8.6560 HW1           1 RES     
    2439 HW2         10.5480     1.0220     8.7740 HW2           1 RES     
    2440 OW          -8.5490     8.7550     6.9300 OW            1 RES     
    2441 HW1         -7.6070     9.0120     7.1450 HW1           1 RES     
    2442 HW2         -9.1740     9.4550     7.2770 HW2           1 RES     
    2443 OW          10.4730    10.1250     6.2010 OW            1 RES     
    2444 HW1          9.5130    10.3150     5.9980 HW1           1 RES     
    2445 HW2         10.7930    10.7470     6.9150 HW2           1 RES     
    2446 OW          14.3400    14.5730    12.3110 OW            1 RES     
    2447 HW1         14.3040    15.4040    12.8650 HW1           1 RES     
    2448 HW2         14.7360    14.7840    11.4170 HW2           1 RES     
    2449 OW           7.7750    18.9590     7.4150 OW            1 RES     
    2450 HW1          7.3540    19.5030     6.6900 HW1           1 RES     
    2451 HW2          8.7510    19.1700     7.4660 HW2           1 RES     
    2452 OW           1.8440    15.0180     8.9940 OW            1 RES     
    2453 HW1          1.8290    15.6800     9.7420 HW1           1 RES     
    2454 HW2          1.7750    15.5010     8.1200 HW2           1 RES     
    2455 OW           3.3730     9.7530     7.4540 OW            1 RES     
    2456 HW1          4.0690    10.4700     7.4260 HW1           1 RES     
    2457 HW2          3.8040     8.8640     7.3000 HW2           1 RES     
    2458 OW          -3.1960    18.6900    15.2070 OW            1 RES     
    2459 HW1         -3.6440    18.1240    15.8980 HW1           1 RES     
    2460 HW2         -2.3790    18.2210    14.8710 HW2           1 RES     
    2461 OW          14.3670     3.7210    12.4170 OW            1 RES     
    2462 HW1         13.5690     3.7060    11.8150 HW1           1 RES     
    2463 HW2         14.1210     3.3370    13.3080 HW2           1 RES     
    2464 OW          12.0580    19.2880    11.8700 OW            1 RES     
    2465 HW1         12.7490    18.5880    12.0450 HW1           1 RES     
    2466 HW2         12.5060    20.1370    11.5880 HW2           1 RES     
    2467 OW           7.1250    16.2660     1.6390 OW            1 RES     
    2468 HW1          6.2810    16.8010     1.6180 HW1           1 RES     
    2469 HW2          7.5910    16.4110     2.5120 HW2           1 RES     
    2470 OW          13.1550     3.6570     4.8120 OW            1 RES     
    2471 HW1         13.5320     3.0540     5.5140 HW1           1 RES     
    2472 HW2         12.8800     3.1150     4.0180 HW2           1 RES     
    2473 OW           4.3320    19.7700     9.5580 OW            1 RES     
    2474 HW1          5.1720    19.4520     9.1210 HW1           1 RES     
    2475 HW2          4.1340    20.7050     9.2610 HW2           1 RES     
    2476 OW          -5.1500     9.4990     7.6460 OW            1 RES     
    2477 HW1         -5.8870    10.0180     8.0780 HW1           1 RES     
    2478 HW2         -4.3060    10.0350     7.6690 HW2           1 RES     
    2479 OW           5.8690     7.9990     8.6610 OW            1 RES     
    2480 HW1          5.5540     7.6240     7.7900 HW1           1 RES     
    2481 HW2          5.2600     8.7390     8.9460 HW2           1 RES     
    2482 OW          12.9850    -0.2610     4.2780 OW            1 RES     
    2483 HW1         12.5800     0.3490     4.9590 HW1           1 RES     
    2484 HW2         13.9410    -0.0070     4.1300 HW2           1 RES     
    2485 OW          -7.5940    19.3150     6.7790 OW            1 RES     
    2486 HW1         -8.1310    18.5900     7.2100 HW1           1 RES     
    2487 HW2         -8.1990    20.0680     6.5200 HW2           1 RES     
    2488 OW          11.6180     8.9050     4.7600 OW            1 RES     
    2489 HW1         12.1710     8.2930     4.1960 HW1           1 RES     
    2490 HW2         10.9210     9.3430     4.1930 HW2           1 RES     
    2491 OW          12.7260     7.7430     6.2680 OW            1 RES     
    2492 HW1         13.7130     7.6840     6.1250 HW1           1 RES     
    2493 HW2         12.5080     8.5910     6.7510 HW2           1 RES     
    2494 OW          -8.0130     3.8780     9.3920 OW            1 RES     
    2495 HW1         -7.9690     4.7000     9.9580 HW1           1 RES     
    2496 HW2         -7.2320     3.8600     8.7680 HW2           1 RES     
    2497 OW          -6.5970     6.8880     7.8420 OW            1 RES     
    2498 HW1         -6.3140     5.9290     7.8230 HW1           1 RES     
    2499 HW2         -7.2010     7.0420     8.6240 HW2           1 RES     
    2500 OW           2.0650    -1.1170    13.8970 OW            1 RES     
    2501 HW1          2.4690    -0.8840    14.7810 HW1           1 RES     
    2502 HW2          2.4270    -0.5050    13.1930 HW2           1 RES     
    2503 OW           4.7210    19.0490    13.4540 OW            1 RES     
    2504 HW1          5.2080    19.9210    13.4340 HW1           1 RES     
    2505 HW2          5.3750    18.2990    13.3580 HW2           1 RES     
    2506 OW           2.0620    21.5450    10.5500 OW            1 RES     
    2507 HW1          2.6890    22.1550    10.0660 HW1           1 RES     
    2508 HW2          2.1300    20.6240    10.1670 HW2           1 RES     
    2509 OW          -2.0870     8.2870    10.9750 OW            1 RES     
    2510 HW1         -2.1030     8.0510    10.0040 HW1           1 RES     
    2511 HW2         -1.1610     8.1620    11.3330 HW2           1 RES     
    2512 OW           2.3440    -0.0280     2.6640 OW            1 RES     
    2513 HW1          1.4090     0.3090     2.7730 HW1           1 RES     
    2514 HW2          2.3600    -1.0180     2.8070 HW2           1 RES     
    2515 OW           1.7260     7.8860    11.1190 OW            1 RES     
    2516 HW1          0.8990     7.3930    11.3860 HW1           1 RES     
    2517 HW2          1.5240     8.8630    11.0470 HW2           1 RES     
    2518 OW          -3.3860     1.1980    15.8980 OW            1 RES     
    2519 HW1         -2.4720     1.0220    15.5330 HW1           1 RES     
    2520 HW2         -3.9260     0.3570    15.8630 HW2           1 RES     
    2521 OW          -8.0480     1.4750     7.0480 OW            1 RES     
    2522 HW1         -8.1140     2.4280     7.3420 HW1           1 RES     
    2523 HW2         -8.9180     1.0120     7.2170 HW2           1 RES     
    2524 OW          -2.2210     7.9900     5.8870 OW            1 RES     
    2525 HW1         -1.3050     7.5990     5.9800 HW1           1 RES     
    2526 HW2         -2.9040     7.2670     5.9930 HW2           1 RES     
    2527 OW          -3.7730    15.9670     3.6010 OW            1 RES     
    2528 HW1         -3.3510    16.8570     3.4300 HW1           1 RES     
    2529 HW2         -3.0600    15.2750     3.7140 HW2           1 RES     
    2530 OW          15.2890    19.2260    11.1250 OW            1 RES     
    2531 HW1         14.7190    18.4060    11.0820 HW1           1 RES     
    2532 HW2         14.7080    20.0290    11.2610 HW2           1 RES     
    2533 OW          -8.5660    12.9920    14.0830 OW            1 RES     
    2534 HW1         -9.3320    12.3640    14.2080 HW1           1 RES     
    2535 HW2         -8.2710    12.9730    13.1270 HW2           1 RES     
    2536 OW          11.5780     4.6360     1.6690 OW            1 RES     
    2537 HW1         10.7920     4.0290     1.5550 HW1           1 RES     
    2538 HW2         12.3000     4.1570     2.1690 HW2           1 RES     
    2539 OW          -0.1780     8.8860    14.9440 OW            1 RES     
    2540 HW1         -1.0650     9.3410    14.8810 HW1           1 RES     
    2541 HW2          0.5520     9.5660    14.8720 HW2           1 RES     
    2542 OW           0.8690     7.7140     6.5400 OW            1 RES     
    2543 HW1          1.4790     7.1100     7.0520 HW1           1 RES     
    2544 HW2          0.9660     7.5330     5.5610 HW2           1 RES     
    2545 OW          16.7410    21.2110    15.6750 OW            1 RES     
    2546 HW1         16.5090    20.2510    15.8290 HW1           1 RES     
    2547 HW2         17.6620    21.2750    15.2900 HW2           1 RES     
    2548 OW           4.5730     6.4940     9.6070 OW            1 RES     
    2549 HW1          3.6070     6.3450     9.8120 HW1           1 RES     
    2550 HW2          4.9440     5.6900     9.1410 HW2           1 RES     
    2551 OW           8.3540     5.1200     3.0950 OW            1 RES     
    2552 HW1          8.5410     5.4450     2.1690 HW1           1 RES     
    2553 HW2          9.1630     4.6560     3.4560 HW2           1 RES     
    2554 OW          14.6150    13.0240     2.8900 OW            1 RES     
    2555 HW1         15.5840    12.7980     2.7990 HW1           1 RES     
    2556 HW2         14.1490    12.8480     2.0230 HW2           1 RES     
    2557 OW          -3.8000     1.8940     4.7370 OW            1 RES     
    2558 HW1         -4.0640     2.8560     4.6780 HW1           1 RES     
    2559 HW2         -2.8050     1.8160     4.6860 HW2           1 RES     
    2560 OW           0.5780     3.5220     7.0920 OW            1 RES     
    2561 HW1          1.4990     3.8720     6.9250 HW1           1 RES     
    2562 HW2          0.2730     2.9950     6.2990 HW2           1 RES     
    2563 OW          -6.7910    17.8740    14.2440 OW            1 RES     
    2564 HW1         -7.5980    18.0910    13.6950 HW1           1 RES     
    2565 HW2         -6.4580    18.7040    14.6910 HW2           1 RES     
    2566 OW          12.0380    16.7820     3.9850 OW            1 RES     
    2567 HW1         11.0410    16.8320     3.9280 HW1           1 RES     
    2568 HW2         12.4380    17.5900     3.5510 HW2           1 RES     
    2569 OW          13.1650     8.8040     9.5620 OW            1 RES     
    2570 HW1         13.8360     9.4930     9.8320 HW1           1 RES     
    2571 HW2         12.5540     9.1870     8.8690 HW2           1 RES     
    2572 OW          -0.7040     2.8540    11.9150 OW            1 RES     
    2573 HW1         -0.4100     3.8010    12.0420 HW1           1 RES     
    2574 HW2         -1.5060     2.8310    11.3180 HW2           1 RES     
    2575 OW          -3.3460    18.8770    12.4940 OW            1 RES     
    2576 HW1         -2.4900    18.3610    12.5310 HW1           1 RES     
    2577 HW2         -4.0660    18.3640    12.9610 HW2           1 RES     
    2578 OW          -2.8180    10.3360     9.4720 OW            1 RES     
    2579 HW1         -2.3980    11.1720     9.8230 HW1           1 RES     
    2580 HW2         -3.5580    10.0520    10.0820 HW2           1 RES     
    2581 OW          -7.4800    -0.1480    14.9130 OW            1 RES     
    2582 HW1         -6.6680    -0.1150    15.4950 HW1           1 RES     
    2583 HW2         -7.8400    -1.0810    14.8960 HW2           1 RES     
    2584 OW           3.3690    14.9530    11.6400 OW            1 RES     
    2585 HW1          4.3130    15.0420    11.3250 HW1           1 RES     
    2586 HW2          3.2600    15.4390    12.5080 HW2           1 RES     
    2587 OW          13.6380    10.3720    14.8600 OW            1 RES     
    2588 HW1         13.1660     9.5640    15.2090 HW1           1 RES     
    2589 HW2         13.5630    10.3980    13.8630 HW2           1 RES     
    2590 OW          -3.6260    15.8170     8.7910 OW            1 RES     
    2591 HW1         -2.8980    16.3750     9.1870 HW1           1 RES     
    2592 HW2         -4.1130    16.3470     8.0960 HW2           1 RES     
    2593 OW          -3.3200    18.4950     8.7740 OW            1 RES     
    2594 HW1         -4.1520    19.0490     8.7630 HW1           1 RES     
    2595 HW2         -2.9140    18.5190     9.6880 HW2           1 RES     
    2596 OW          -9.7920     7.3870    10.8910 OW            1 RES     
    2597 HW1         -8.9540     6.8730    10.7130 HW1           1 RES     
    2598 HW2         -9.7870     8.2300    10.3540 HW2           1 RES     
    2599 OW          -2.8810     9.9350    12.8320 OW            1 RES     
    2600 HW1         -3.5950     9.2730    12.6060 HW1           1 RES     
    2601 HW2         -1.9990     9.4670    12.8930 HW2           1 RES     
    2602 OW          -5.7510     7.9590    13.9240 OW            1 RES     
    2603 HW1         -5.1690     7.1480    13.8800 HW1           1 RES     
    2604 HW2         -6.1960     8.1000    13.0400 HW2           1 RES     
    2605 OW          -3.1290    22.3720    13.4340 OW            1 RES     
    2606 HW1         -2.6150    22.6380    14.2490 HW1           1 RES     
    2607 HW2         -2.5220    22.3780    12.6390 HW2           1 RES     
    2608 OW           6.0870    22.5660    14.9750 OW            1 RES     
    2609 HW1          6.0480    21.5860    14.7830 HW1           1 RES     
    2610 HW2          5.1580    22.9300    15.0470 HW2           1 RES     
    2611 OW           3.0440     4.6880     5.2580 OW            1 RES     
    2612 HW1          3.2840     3.7960     5.6390 HW1           1 RES     
    2613 HW2          2.0920     4.6760     4.9540 HW2           1 RES     
    2614 OW          -5.3360    13.8550     2.5100 OW            1 RES     
    2615 HW1         -4.4780    13.7480     3.0110 HW1           1 RES     
    2616 HW2         -5.2010    13.5890     1.5550 HW2           1 RES     
    2617 OW          -3.9470    11.7490    13.6520 OW            1 RES     
    2618 HW1         -4.4680    12.5380    13.9760 HW1           1 RES     
    2619 HW2         -3.2870    11.4740    14.3510 HW2           1 RES     
    2620 OW          -1.9670    14.3410     9.0380 OW            1 RES     
    2621 HW1         -0.9730    14.3570     8.9410 HW1           1 RES     
    2622 HW2         -2.2860    13.3930     9.0530 HW2           1 RES     
    2623 OW          -0.2690     5.7250    14.2770 OW            1 RES     
    2624 HW1         -0.2350     4.7930    14.6360 HW1           1 RES     
    2625 HW2          0.5750     5.9210    13.7770 HW2           1 RES     
    2626 OW          14.4550    -0.2490     8.7050 OW            1 RES     
    2627 HW1         13.9390    -0.9040     9.2560 HW1           1 RES     
    2628 HW2         15.3020    -0.6740     8.3860 HW2           1 RES     
    2629 OW          17.4260     6.2040     8.2420 OW            1 RES     
    2630 HW1         16.9640     6.0380     7.3720 HW1           1 RES     
    2631 HW2         16.8120     6.7000     8.8580 HW2           1 RES     
    2632 OW          -2.4130    -1.1170    13.9130 OW            1 RES     
    2633 HW1         -2.5700    -1.0820    14.8990 HW1           1 RES     
    2634 HW2         -3.1780    -0.6820    13.4370 HW2           1 RES     
    2635 OW           0.1300     2.3070    14.7310 OW            1 RES     
    2636 HW1         -0.6720     2.1420    14.1570 HW1           1 RES     
    2637 HW2          0.2650     1.5310    15.3480 HW2           1 RES     
    2638 OW           8.7130    12.4460    15.8980 OW            1 RES     
    2639 HW1          7.9950    12.9710    15.4420 HW1           1 RES     
    2640 HW2          9.1310    11.8140    15.2450 HW2           1 RES     
    2641 OW          -1.9060    11.5860     3.0700 OW            1 RES     
    2642 HW1         -2.1770    12.3940     3.5930 HW1           1 RES     
    2643 HW2         -2.3630    10.7780     3.4420 HW2           1 RES     
    2644 OW          16.6040    16.9790    10.3600 OW            1 RES     
    2645 HW1         16.7550    17.9350    10.1140 HW1           1 RES     
    2646 HW2         15.6870    16.7010    10.0730 HW2           1 RES     
    2647 OW           8.4400     7.7700     3.7430 OW            1 RES     
    2648 HW1          9.1660     7.0910     3.6440 HW1           1 RES     
    2649 HW2          8.8270     8.6250     4.0900 HW2           1 RES     
    2650 OW           3.6950    12.6700    13.7240 OW            1 RES     
    2651 HW1          4.5380    13.1970    13.6250 HW1           1 RES     
    2652 HW2          3.6310    12.0000    12.9840 HW2           1 RES     
    2653 OW          12.3100     8.1200    13.6870 OW            1 RES     
    2654 HW1         11.7620     7.3770    14.0700 HW1           1 RES     
    2655 HW2         12.7160     7.8230    12.8220 HW2           1 RES     
    2656 OW           6.6290     8.0060     1.9820 OW            1 RES     
    2657 HW1          7.3350     8.7060     2.0780 HW1           1 RES     
    2658 HW2          7.0160     7.1090     2.2000 HW2           1 RES     
    2659 OW           4.6170     6.9810     2.1510 OW            1 RES     
    2660 HW1          4.7590     7.4220     3.0370 HW1           1 RES     
    2661 HW2          4.0150     7.5470     1.5890 HW2           1 RES     
    2662 OW          11.1870    22.8700     9.1090 OW            1 RES     
    2663 HW1         11.3950    22.9470     8.1350 HW1           1 RES     
    2664 HW2         11.1130    21.9040     9.3590 HW2           1 RES     
    2665 OW           6.5870     7.7760     4.9290 OW            1 RES     
    2666 HW1          7.0330     8.4870     5.4720 HW1           1 RES     
    2667 HW2          5.7920     7.4270     5.4260 HW2           1 RES     
    2668 OW          12.9760     9.5220     2.5540 OW            1 RES     
    2669 HW1         12.1100    10.0130     2.4670 HW1           1 RES     
    2670 HW2         12.9230     8.6600     2.0500 HW2           1 RES     
    2671 OW          11.4790     5.0950     4.6250 OW            1 RES     
    2672 HW1         11.0350     4.2410     4.8950 HW1           1 RES     
    2673 HW2         10.7830     5.7850     4.4260 HW2           1 RES     
    2674 OW          17.8010     4.0600     8.6160 OW            1 RES     
    2675 HW1         16.8800     3.7340     8.8260 HW1           1 RES     
    2676 HW2         17.9310     4.0780     7.6240 HW2           1 RES     
    2677 OW           3.2970    15.1640     5.4940 OW            1 RES     
    2678 HW1          2.9790    15.2030     4.5470 HW1           1 RES     
    2679 HW2          4.2580    14.8890     5.5120 HW2           1 RES     
    2680 OW          11.2430     6.6820     2.4060 OW            1 RES     
    2681 HW1         12.2340     6.6240     2.5190 HW1           1 RES     
    2682 HW2         10.9530     7.6360     2.4830 HW2           1 RES     
    2683 OW           5.8580    12.5610    11.5030 OW            1 RES     
    2684 HW1          6.6690    13.0120    11.8750 HW1           1 RES     
    2685 HW2          6.0240    12.3080    10.5500 HW2           1 RES     
    2686 OW           5.1720    13.7620     3.6630 OW            1 RES     
    2687 HW1          5.6940    12.9140     3.5750 HW1           1 RES     
    2688 HW2          4.2010    13.5470     3.7700 HW2           1 RES     
    2689 OW          -9.0440    15.2700   -67.1980 OW            1 RES     
    2690 HW1         -8.9410    14.2790   -67.2680 HW1           1 RES     
    2691 HW2         -9.7920    15.5710   -67.7900 HW2           1 RES     
    2692 OW          17.2770    13.1750   -65.9530 OW            1 RES     
    2693 HW1         17.0740    12.8870   -65.0180 HW1           1 RES     
    2694 HW2         17.9300    12.5390   -66.3640 HW2           1 RES     
    2695 OW           7.4200     9.7960   -65.5800 OW            1 RES     
    2696 HW1          8.4110     9.9270   -65.5820 HW1           1 RES     
    2697 HW2          6.9650    10.6870   -65.5820 HW2           1 RES     
    2698 OW          12.7030     0.5720   -60.4020 OW            1 RES     
    2699 HW1         11.7480     0.7320   -60.6520 HW1           1 RES     
    2700 HW2         13.3010     1.0600   -61.0390 HW2           1 RES     
    2701 OW          -1.2500    10.7690   -63.7170 OW            1 RES     
    2702 HW1         -0.5120    11.4210   -63.8870 HW1           1 RES     
    2703 HW2         -2.0670    11.2610   -63.4170 HW2           1 RES     
    2704 OW           6.5440     7.3960   -64.2340 OW            1 RES     
    2705 HW1          7.2230     6.8400   -63.7560 HW1           1 RES     
    2706 HW2          5.6340     7.1960   -63.8730 HW2           1 RES     
    2707 OW           1.4520    10.7020   -63.1490 OW            1 RES     
    2708 HW1          0.9150    10.7320   -62.3060 HW1           1 RES     
    2709 HW2          1.5990     9.7490   -63.4170 HW2           1 RES     
    2710 OW          -4.1090     0.0980   -62.3840 OW            1 RES     
    2711 HW1         -4.2730     1.0040   -61.9960 HW1           1 RES     
    2712 HW2         -3.2240    -0.2450   -62.0700 HW2           1 RES     
    2713 OW           7.4830     0.3880   -66.2040 OW            1 RES     
    2714 HW1          6.5810     0.1440   -66.5600 HW1           1 RES     
    2715 HW2          8.0340    -0.4390   -66.0960 HW2           1 RES     
    2716 OW           8.4510    17.1090   -69.9830 OW            1 RES     
    2717 HW1          9.1950    17.7300   -69.7380 HW1           1 RES     
    2718 HW2          8.6440    16.1980   -69.6170 HW2           1 RES     
    2719 OW          14.5470    15.1370   -66.6810 OW            1 RES     
    2720 HW1         13.9010    15.6230   -66.0930 HW1           1 RES     
    2721 HW2         15.2730    15.7630   -66.9670 HW2           1 RES     
    2722 OW          16.3280    17.7020   -59.4080 OW            1 RES     
    2723 HW1         15.4020    17.4890   -59.7170 HW1           1 RES     
    2724 HW2         16.8380    18.1350   -60.1530 HW2           1 RES     
    2725 OW           4.9650     2.0250   -68.2850 OW            1 RES     
    2726 HW1          5.5960     1.2500   -68.2510 HW1           1 RES     
    2727 HW2          5.4860     2.8790   -68.2820 HW2           1 RES     
    2728 OW           0.9420     5.9870   -63.3530 OW            1 RES     
    2729 HW1          1.6810     6.5930   -63.0620 HW1           1 RES     
    2730 HW2          1.2460     5.0360   -63.2900 HW2           1 RES     
    2731 OW          -2.7690    19.8690   -71.0520 OW            1 RES     
    2732 HW1         -2.0830    20.5930   -70.9880 HW1           1 RES     
    2733 HW2         -2.3510    18.9910   -70.8160 HW2           1 RES     
    2734 OW           6.3300    19.4910   -65.5740 OW            1 RES     
    2735 HW1          5.9910    20.4150   -65.7470 HW1           1 RES     
    2736 HW2          7.2830    19.4240   -65.8700 HW2           1 RES     
    2737 OW          -5.6370    14.9270   -64.5070 OW            1 RES     
    2738 HW1         -4.9570    15.0930   -63.7940 HW1           1 RES     
    2739 HW2         -6.0910    14.0520   -64.3390 HW2           1 RES     
    2740 OW           2.6690    10.7130   -59.2730 OW            1 RES     
    2741 HW1          3.1190     9.8240   -59.3510 HW1           1 RES     
    2742 HW2          1.6810    10.5810   -59.1920 HW2           1 RES     
    2743 OW           8.2750     0.7490   -59.7470 OW            1 RES     
    2744 HW1          9.1730     0.4160   -59.4630 HW1           1 RES     
    2745 HW2          8.2130     1.7320   -59.5730 HW2           1 RES     
    2746 OW          11.9210    11.9630   -59.1930 OW            1 RES     
    2747 HW1         12.6580    12.6220   -59.3390 HW1           1 RES     
    2748 HW2         12.2850    11.0340   -59.2610 HW2           1 RES     
    2749 OW           0.8280     9.9420   -73.2950 OW            1 RES     
    2750 HW1         -0.1110    10.1830   -73.5350 HW1           1 RES     
    2751 HW2          0.9220     8.9460   -73.2730 HW2           1 RES     
    2752 OW           1.9470    10.7520   -70.5290 OW            1 RES     
    2753 HW1          2.9070    10.7830   -70.8050 HW1           1 RES     
    2754 HW2          1.3690    11.0120   -71.3020 HW2           1 RES     
    2755 OW          -5.3310     2.9790   -59.7010 OW            1 RES     
    2756 HW1         -6.3220     2.9810   -59.5730 HW1           1 RES     
    2757 HW2         -4.9920     2.0390   -59.6700 HW2           1 RES     
    2758 OW          11.0060     6.7980   -67.8080 OW            1 RES     
    2759 HW1         10.8850     5.9650   -68.3470 HW1           1 RES     
    2760 HW2         10.9400     6.5780   -66.8350 HW2           1 RES     
    2761 OW           8.6440    15.4320   -71.9750 OW            1 RES     
    2762 HW1          9.4840    15.8410   -71.6190 HW1           1 RES     
    2763 HW2          8.7320    14.4360   -71.9770 HW2           1 RES     
    2764 OW          -8.4450     9.2870   -59.7930 OW            1 RES     
    2765 HW1         -9.0060    10.0000   -59.3730 HW1           1 RES     
    2766 HW2         -7.5270     9.3070   -59.3960 HW2           1 RES     
    2767 OW          10.6180     5.0000   -63.2570 OW            1 RES     
    2768 HW1         10.3300     5.5190   -64.0610 HW1           1 RES     
    2769 HW2         10.4230     4.0290   -63.3980 HW2           1 RES     
    2770 OW           0.3910     8.7850   -64.9890 OW            1 RES     
    2771 HW1         -0.0440     8.7040   -65.8850 HW1           1 RES     
    2772 HW2          1.0620     8.0520   -64.8760 HW2           1 RES     
    2773 OW          -2.5410     3.8040   -67.7510 OW            1 RES     
    2774 HW1         -3.4620     3.5010   -67.9910 HW1           1 RES     
    2775 HW2         -2.5940     4.6600   -67.2370 HW2           1 RES     
    2776 OW           1.8510     6.6310   -67.2540 OW            1 RES     
    2777 HW1          2.8030     6.5620   -66.9560 HW1           1 RES     
    2778 HW2          1.5070     7.5500   -67.0630 HW2           1 RES     
    2779 OW          14.4010    12.5700   -71.7400 OW            1 RES     
    2780 HW1         13.5550    12.9020   -71.3230 HW1           1 RES     
    2781 HW2         14.2910    11.6110   -72.0010 HW2           1 RES     
    2782 OW          -1.4010     4.5970   -65.2870 OW            1 RES     
    2783 HW1         -0.9410     4.5580   -64.4010 HW1           1 RES     
    2784 HW2         -1.1420     5.4400   -65.7600 HW2           1 RES     
    2785 OW          16.6190    20.0450   -70.4180 OW            1 RES     
    2786 HW1         16.2240    20.9630   -70.4320 HW1           1 RES     
    2787 HW2         15.8850    19.3650   -70.4240 HW2           1 RES     
    2788 OW           9.2980     9.0660   -67.7100 OW            1 RES     
    2789 HW1          9.8330     9.8640   -67.9880 HW1           1 RES     
    2790 HW2          9.3730     8.3550   -68.4090 HW2           1 RES     
    2791 OW          10.4950    14.7770   -60.0030 OW            1 RES     
    2792 HW1          9.8100    14.4840   -59.3360 HW1           1 RES     
    2793 HW2         11.1230    14.0220   -60.1900 HW2           1 RES     
    2794 OW          -2.2680    -0.9960   -59.8990 OW            1 RES     
    2795 HW1         -1.5670    -1.1170   -60.6010 HW1           1 RES     
    2796 HW2         -1.9300    -0.3750   -59.1920 HW2           1 RES     
    2797 OW          -8.5420     2.9640   -72.7380 OW            1 RES     
    2798 HW1         -8.5700     2.0150   -72.4270 HW1           1 RES     
    2799 HW2         -9.3780     3.1750   -73.2440 HW2           1 RES     
    2800 OW           8.9700     9.2020   -60.4600 OW            1 RES     
    2801 HW1          9.8020     8.6480   -60.4590 HW1           1 RES     
    2802 HW2          8.1820     8.6220   -60.6630 HW2           1 RES     
    2803 OW           0.2210    12.8380   -73.4650 OW            1 RES     
    2804 HW1          0.9190    12.1270   -73.5350 HW1           1 RES     
    2805 HW2         -0.4010    12.6230   -72.7120 HW2           1 RES     
    2806 OW          -2.9770    16.5950   -63.8380 OW            1 RES     
    2807 HW1         -2.1730    17.0820   -64.1760 HW1           1 RES     
    2808 HW2         -3.7880    16.9040   -64.3350 HW2           1 RES     
    2809 OW          11.1300    16.8720   -72.6520 OW            1 RES     
    2810 HW1         11.9790    17.3910   -72.7460 HW1           1 RES     
    2811 HW2         10.8940    16.4570   -73.5310 HW2           1 RES     
    2812 OW           0.1650    19.7830   -68.9720 OW            1 RES     
    2813 HW1         -0.2330    20.1280   -68.1220 HW1           1 RES     
    2814 HW2          0.3830    20.5520   -69.5740 HW2           1 RES     
    2815 OW          13.8790     8.4370   -65.2450 OW            1 RES     
    2816 HW1         14.1710     8.7450   -64.3400 HW1           1 RES     
    2817 HW2         14.0090     7.4480   -65.3190 HW2           1 RES     
    2818 OW           2.5780    15.5430   -66.5670 OW            1 RES     
    2819 HW1          1.7000    15.6310   -66.0980 HW1           1 RES     
    2820 HW2          3.0070    14.6760   -66.3120 HW2           1 RES     
    2821 OW          -6.6030    17.5850   -64.7040 OW            1 RES     
    2822 HW1         -6.6660    17.1230   -63.8200 HW1           1 RES     
    2823 HW2         -5.8070    17.2430   -65.2040 HW2           1 RES     
    2824 OW           7.3140     4.0090   -63.0690 OW            1 RES     
    2825 HW1          6.6190     4.7240   -63.0120 HW1           1 RES     
    2826 HW2          8.2230     4.4240   -63.0470 HW2           1 RES     
    2827 OW          -3.7800    12.7410   -66.2300 OW            1 RES     
    2828 HW1         -4.4750    13.4370   -66.0560 HW1           1 RES     
    2829 HW2         -4.2040    11.8350   -66.2180 HW2           1 RES     
    2830 OW          14.8000    13.7460   -64.5350 OW            1 RES     
    2831 HW1         15.4910    14.4030   -64.8340 HW1           1 RES     
    2832 HW2         14.7600    13.7360   -63.5350 HW2           1 RES     
    2833 OW          13.6680    11.2300   -63.5000 OW            1 RES     
    2834 HW1         13.2900    12.1150   -63.7680 HW1           1 RES     
    2835 HW2         14.6600    11.2370   -63.6300 HW2           1 RES     
    2836 OW          14.9940    15.9280   -62.4370 OW            1 RES     
    2837 HW1         14.8270    16.0150   -63.4180 HW1           1 RES     
    2838 HW2         14.6960    16.7620   -61.9720 HW2           1 RES     
    2839 OW          -2.7190     1.0660   -68.4730 OW            1 RES     
    2840 HW1         -3.6270     1.3120   -68.1360 HW1           1 RES     
    2841 HW2         -2.3530     1.8160   -69.0250 HW2           1 RES     
    2842 OW          17.3310     9.7130   -60.3130 OW            1 RES     
    2843 HW1         17.2730     8.8960   -60.8860 HW1           1 RES     
    2844 HW2         17.5160     9.4470   -59.3670 HW2           1 RES     
    2845 OW          -6.7500     2.4520   -65.7050 OW            1 RES     
    2846 HW1         -6.4930     2.8640   -64.8310 HW1           1 RES     
    2847 HW2         -7.6260     1.9800   -65.6070 HW2           1 RES     
    2848 OW           7.7250     3.0050   -71.5900 OW            1 RES     
    2849 HW1          7.9110     2.0650   -71.8740 HW1           1 RES     
    2850 HW2          6.7370     3.1590   -71.5730 HW2           1 RES     
    2851 OW          14.5460    11.0250   -61.1190 OW            1 RES     
    2852 HW1         14.6710    11.9540   -60.7710 HW1           1 RES     
    2853 HW2         15.3490    10.4730   -60.8910 HW2           1 RES     
    2854 OW          -6.8250     5.8550   -65.8440 OW            1 RES     
    2855 HW1         -7.6470     6.3440   -66.1320 HW1           1 RES     
    2856 HW2         -6.9610     4.8710   -65.9660 HW2           1 RES     
    2857 OW          -5.5770     1.2180   -71.2640 OW            1 RES     
    2858 HW1         -6.4410     1.0690   -70.7840 HW1           1 RES     
    2859 HW2         -5.4520     2.1950   -71.4340 HW2           1 RES     
    2860 OW           2.8480     4.2180   -60.8300 OW            1 RES     
    2861 HW1          3.6840     3.6780   -60.9290 HW1           1 RES     
    2862 HW2          3.0200     5.1570   -61.1270 HW2           1 RES     
    2863 OW          17.1340    15.3420   -59.4050 OW            1 RES     
    2864 HW1         17.9280    15.8960   -59.6490 HW1           1 RES     
    2865 HW2         17.4290    14.4100   -59.1930 HW2           1 RES     
    2866 OW          -8.6200    22.4010   -70.5380 OW            1 RES     
    2867 HW1         -7.8430    22.9460   -70.2250 HW1           1 RES     
    2868 HW2         -9.4560    22.9470   -70.4800 HW2           1 RES     
    2869 OW          16.1550    16.8640   -70.9520 OW            1 RES     
    2870 HW1         16.7550    16.7380   -71.7410 HW1           1 RES     
    2871 HW2         16.0180    15.9860   -70.4930 HW2           1 RES     
    2872 OW          11.1670    11.3100   -70.1710 OW            1 RES     
    2873 HW1         10.7380    11.3670   -71.0720 HW1           1 RES     
    2874 HW2         12.0930    11.6850   -70.2180 HW2           1 RES     
    2875 OW          16.8610    12.5300   -68.3370 OW            1 RES     
    2876 HW1         17.2020    13.4620   -68.2240 HW1           1 RES     
    2877 HW2         17.6330    11.9040   -68.4490 HW2           1 RES     
    2878 OW           1.6670    14.4370   -64.2500 OW            1 RES     
    2879 HW1          1.8040    13.4490   -64.1860 HW1           1 RES     
    2880 HW2          2.5280    14.9070   -64.0560 HW2           1 RES     
    2881 OW          -3.1850     1.7400   -65.2620 OW            1 RES     
    2882 HW1         -2.8050     2.5380   -65.7280 HW1           1 RES     
    2883 HW2         -2.7050     0.9160   -65.5660 HW2           1 RES     
    2884 OW           6.4830    14.6230   -71.6370 OW            1 RES     
    2885 HW1          6.8050    13.8520   -71.0900 HW1           1 RES     
    2886 HW2          5.6270    14.9710   -71.2530 HW2           1 RES     
    2887 OW          -7.5210     9.1380   -62.1820 OW            1 RES     
    2888 HW1         -6.9450     9.9550   -62.1700 HW1           1 RES     
    2889 HW2         -8.4830     9.4070   -62.1380 HW2           1 RES     
    2890 OW          12.7710     1.6010   -69.6580 OW            1 RES     
    2891 HW1         12.6670     1.1850   -70.5610 HW1           1 RES     
    2892 HW2         13.7400     1.6250   -69.4120 HW2           1 RES     
    2893 OW           3.8370    13.0470   -71.0080 OW            1 RES     
    2894 HW1          4.8120    12.9260   -71.1900 HW1           1 RES     
    2895 HW2          3.6290    14.0220   -70.9350 HW2           1 RES     
    2896 OW          15.8000     6.1450   -65.6240 OW            1 RES     
    2897 HW1         15.2310     5.9970   -66.4330 HW1           1 RES     
    2898 HW2         16.6340     6.6300   -65.8870 HW2           1 RES     
    2899 OW           1.0180    15.9720   -62.8130 OW            1 RES     
    2900 HW1          1.7280    16.6720   -62.8870 HW1           1 RES     
    2901 HW2          0.1340    16.4090   -62.6480 HW2           1 RES     
    2902 OW          -8.6670    13.2440   -69.1910 OW            1 RES     
    2903 HW1         -9.2790    12.4550   -69.2130 HW1           1 RES     
    2904 HW2         -7.7180    12.9300   -69.1640 HW2           1 RES     
    2905 OW           6.4920    17.2960   -72.3490 OW            1 RES     
    2906 HW1          7.1450    17.7970   -71.7830 HW1           1 RES     
    2907 HW2          6.1540    17.8940   -73.0770 HW2           1 RES     
    2908 OW          10.0790     3.8340   -59.7650 OW            1 RES     
    2909 HW1          9.9670     3.0230   -59.1920 HW1           1 RES     
    2910 HW2         10.3430     4.6120   -59.1950 HW2           1 RES     
    2911 OW          -5.1430     0.9820   -66.0230 OW            1 RES     
    2912 HW1         -5.4740     1.1130   -66.9560 HW1           1 RES     
    2913 HW2         -4.7070     0.0860   -65.9460 HW2           1 RES     
    2914 OW          17.3200     0.9390   -65.9670 OW            1 RES     
    2915 HW1         17.9300     0.1640   -65.8050 HW1           1 RES     
    2916 HW2         17.7250     1.5460   -66.6510 HW2           1 RES     
    2917 OW           6.9650    15.7870   -68.1250 OW            1 RES     
    2918 HW1          7.4990    15.7620   -67.2810 HW1           1 RES     
    2919 HW2          6.8690    16.7340   -68.4320 HW2           1 RES     
    2920 OW          -8.5830    13.9190   -71.4330 OW            1 RES     
    2921 HW1         -8.8920    12.9710   -71.3770 HW1           1 RES     
    2922 HW2         -7.6440    13.9850   -71.0940 HW2           1 RES     
    2923 OW          10.2480     0.1860   -72.3200 OW            1 RES     
    2924 HW1         10.9940     0.7070   -71.9080 HW1           1 RES     
    2925 HW2         10.2050    -0.7230   -71.9050 HW2           1 RES     
    2926 OW          -4.1820     6.3540   -72.1640 OW            1 RES     
    2927 HW1         -4.9960     6.9070   -72.3420 HW1           1 RES     
    2928 HW2         -3.3810     6.8000   -72.5640 HW2           1 RES     
    2929 OW          12.1350     3.9130   -61.1850 OW            1 RES     
    2930 HW1         12.2220     2.9570   -61.4640 HW1           1 RES     
    2931 HW2         13.0010     4.3870   -61.3420 HW2           1 RES     
    2932 OW           3.9100     4.1320   -70.8320 OW            1 RES     
    2933 HW1          3.6940     3.9600   -69.8720 HW1           1 RES     
    2934 HW2          4.4660     3.3810   -71.1890 HW2           1 RES     
    2935 OW           1.4820    17.5720   -65.0510 OW            1 RES     
    2936 HW1          0.8250    18.0850   -65.6030 HW1           1 RES     
    2937 HW2          2.3900    17.6370   -65.4660 HW2           1 RES     
    2938 OW          16.1240     5.0480   -71.8090 OW            1 RES     
    2939 HW1         16.9590     5.3760   -72.2500 HW1           1 RES     
    2940 HW2         15.7470     4.2850   -72.3350 HW2           1 RES     
    2941 OW          -6.4080    16.1720   -69.0590 OW            1 RES     
    2942 HW1         -5.9240    16.1900   -68.1850 HW1           1 RES     
    2943 HW2         -6.9440    15.3310   -69.1270 HW2           1 RES     
    2944 OW           3.9800    13.2340   -64.4280 OW            1 RES     
    2945 HW1          4.0550    12.2820   -64.7210 HW1           1 RES     
    2946 HW2          4.5550    13.8090   -65.0110 HW2           1 RES     
    2947 OW          -9.1900    17.3880   -69.6210 OW            1 RES     
    2948 HW1         -9.7860    17.8840   -68.9910 HW1           1 RES     
    2949 HW2         -8.4950    16.8910   -69.1020 HW2           1 RES     
    2950 OW          16.1860     4.0160   -66.4310 OW            1 RES     
    2951 HW1         16.7330     3.5900   -67.1520 HW1           1 RES     
    2952 HW2         15.7750     3.3050   -65.8600 HW2           1 RES     
    2953 OW           6.3460    11.5740   -67.6350 OW            1 RES     
    2954 HW1          5.4500    11.1380   -67.5580 HW1           1 RES     
    2955 HW2          6.5520    11.7480   -68.5980 HW2           1 RES     
    2956 OW          -4.5920    21.4560   -62.4420 OW            1 RES     
    2957 HW1         -4.0600    20.8340   -61.8690 HW1           1 RES     
    2958 HW2         -4.7190    22.3250   -61.9630 HW2           1 RES     
    2959 OW          16.3880    17.5460   -67.6150 OW            1 RES     
    2960 HW1         16.5290    17.5860   -66.6260 HW1           1 RES     
    2961 HW2         17.0100    16.8720   -68.0140 HW2           1 RES     
    2962 OW          -3.6680     2.9590   -63.3620 OW            1 RES     
    2963 HW1         -4.4830     2.9240   -63.9390 HW1           1 RES     
    2964 HW2         -3.9350     3.1580   -62.4180 HW2           1 RES     
    2965 OW           3.2890    10.4480   -73.5350 OW            1 RES     
    2966 HW1          3.0980     9.5250   -73.2040 HW1           1 RES     
    2967 HW2          2.7910    11.1130   -72.9770 HW2           1 RES     
    2968 OW          -3.4250     6.1860   -62.9330 OW            1 RES     
    2969 HW1         -3.8380     5.3260   -63.2310 HW1           1 RES     
    2970 HW2         -2.5100     6.2720   -63.3290 HW2           1 RES     
    2971 OW          14.1380    21.9560   -62.8180 OW            1 RES     
    2972 HW1         13.5270    21.7090   -63.5700 HW1           1 RES     
    2973 HW2         13.8840    22.8570   -62.4640 HW2           1 RES     
    2974 OW          12.3360    13.5710   -67.6490 OW            1 RES     
    2975 HW1         12.8550    13.1760   -68.4060 HW1           1 RES     
    2976 HW2         12.6080    14.5250   -67.5190 HW2           1 RES     
    2977 OW          14.9780    -1.1110   -69.6670 OW            1 RES     
    2978 HW1         13.9970    -0.9690   -69.7960 HW1           1 RES     
    2979 HW2         15.4300    -0.2270   -69.5410 HW2           1 RES     
    2980 OW          14.6160    22.3140   -68.5680 OW            1 RES     
    2981 HW1         13.6820    22.3400   -68.2130 HW1           1 RES     
    2982 HW2         14.5930    22.1550   -69.5550 HW2           1 RES     
    2983 OW           1.5350    16.4270   -69.7040 OW            1 RES     
    2984 HW1          0.7040    16.5050   -70.2520 HW1           1 RES     
    2985 HW2          1.8910    15.4940   -69.7660 HW2           1 RES     
    2986 OW           5.3950    13.5760   -68.2000 OW            1 RES     
    2987 HW1          5.8610    13.8870   -69.0270 HW1           1 RES     
    2988 HW2          5.6270    14.1820   -67.4380 HW2           1 RES     
    2989 OW           4.7330     9.3350   -65.5300 OW            1 RES     
    2990 HW1          5.4360     9.2110   -64.8300 HW1           1 RES     
    2991 HW2          4.6030    10.3110   -65.7040 HW2           1 RES     
    2992 OW          -6.9060     1.6230   -62.1090 OW            1 RES     
    2993 HW1         -7.0760     2.4610   -61.5920 HW1           1 RES     
    2994 HW2         -6.1810     1.7860   -62.7800 HW2           1 RES     
    2995 OW           1.9980    18.5070   -71.3320 OW            1 RES     
    2996 HW1          2.1290    17.6400   -71.8130 HW1           1 RES     
    2997 HW2          2.8550    18.7770   -70.8920 HW2           1 RES     
    2998 OW          11.9130    18.6150   -60.5570 OW            1 RES     
    2999 HW1         10.9530    18.3430   -60.4970 HW1           1 RES     
    3000 HW2         11.9890    19.4550   -61.0940 HW2           1 RES     
    3001 OW           3.3790    18.1210   -63.0050 OW            1 RES     
    3002 HW1          3.4850    18.6560   -62.1670 HW1           1 RES     
    3003 HW2          4.0050    17.3410   -62.9840 HW2           1 RES     
    3004 OW          -4.5420     4.6620   -65.9120 OW            1 RES     
    3005 HW1         -4.6470     3.6850   -66.0920 HW1           1 RES     
    3006 HW2         -4.9050     5.1850   -66.6840 HW2           1 RES     
    3007 OW          -6.2710    14.6020   -66.5950 OW            1 RES     
    3008 HW1         -6.6950    13.8720   -67.1320 HW1           1 RES     
    3009 HW2         -6.9390    15.3280   -66.4340 HW2           1 RES     
    3010 OW          -8.8080     9.1710   -70.0280 OW            1 RES     
    3011 HW1         -9.7900     9.0070   -70.1100 HW1           1 RES     
    3012 HW2         -8.6410    10.1490   -69.9080 HW2           1 RES     
    3013 OW          15.1250     2.3780   -60.0810 OW            1 RES     
    3014 HW1         15.0420     1.4390   -59.7480 HW1           1 RES     
    3015 HW2         14.3580     2.9220   -59.7390 HW2           1 RES     
    3016 OW          -2.8750    14.8200   -66.6650 OW            1 RES     
    3017 HW1         -2.4250    15.6890   -66.4630 HW1           1 RES     
    3018 HW2         -3.5770    14.9610   -67.3630 HW2           1 RES     
    3019 OW          12.4070    11.6310   -66.1700 OW            1 RES     
    3020 HW1         13.3670    11.3590   -66.2200 HW1           1 RES     
    3021 HW2         12.3340    12.5150   -65.7090 HW2           1 RES     
    3022 OW          -5.4150    17.0510   -71.7110 OW            1 RES     
    3023 HW1         -5.0330    16.4590   -71.0020 HW1           1 RES     
    3024 HW2         -4.8040    17.0590   -72.5030 HW2           1 RES     
    3025 OW           0.5160     4.6900   -67.2570 OW            1 RES     
    3026 HW1          0.9180     4.7770   -66.3470 HW1           1 RES     
    3027 HW2         -0.2280     4.0220   -67.2310 HW2           1 RES     
    3028 OW          -8.5010    21.3870   -61.7320 OW            1 RES     
    3029 HW1         -8.3340    20.4160   -61.8980 HW1           1 RES     
    3030 HW2         -9.4840    21.5470   -61.6430 HW2           1 RES     
    3031 OW           1.5220    22.1750   -60.8120 OW            1 RES     
    3032 HW1          2.1030    22.8890   -61.2010 HW1           1 RES     
    3033 HW2          1.7090    22.0890   -59.8330 HW2           1 RES     
    3034 OW          -7.8910    10.5140   -66.9630 OW            1 RES     
    3035 HW1         -8.1790     9.5620   -67.0550 HW1           1 RES     
    3036 HW2         -8.5390    11.1060   -67.4430 HW2           1 RES     
    3037 OW           9.9940    14.5170   -69.1680 OW            1 RES     
    3038 HW1         10.9650    14.6630   -68.9840 HW1           1 RES     
    3039 HW2          9.4970    14.4470   -68.3030 HW2           1 RES     
    3040 OW           6.6440     4.7410   -60.6320 OW            1 RES     
    3041 HW1          7.3030     4.1360   -60.1870 HW1           1 RES     
    3042 HW2          5.8790     4.2010   -60.9820 HW2           1 RES     
    3043 OW           9.2490     6.8880   -65.4610 OW            1 RES     
    3044 HW1          9.0740     7.6400   -64.8270 HW1           1 RES     
    3045 HW2          8.3860     6.4420   -65.6960 HW2           1 RES     
    3046 OW          -8.1280     9.6890   -72.7750 OW            1 RES     
    3047 HW1         -9.0860     9.4500   -72.9310 HW1           1 RES     
    3048 HW2         -7.9940    10.6650   -72.9510 HW2           1 RES     
    3049 OW          14.1480     9.3640   -59.3190 OW            1 RES     
    3050 HW1         14.7870     8.6180   -59.5010 HW1           1 RES     
    3051 HW2         13.2130     9.0520   -59.4840 HW2           1 RES     
    3052 OW           5.5380     5.5650   -66.7630 OW            1 RES     
    3053 HW1          5.1610     5.4000   -67.6740 HW1           1 RES     
    3054 HW2          6.3000     6.2100   -66.8290 HW2           1 RES     
    3055 OW           7.7710    19.7050   -69.9510 OW            1 RES     
    3056 HW1          7.2100    19.0590   -69.4350 HW1           1 RES     
    3057 HW2          7.4150    19.7860   -70.8820 HW2           1 RES     
    3058 OW           1.5180    14.1730   -71.7480 OW            1 RES     
    3059 HW1          1.4870    13.1760   -71.6870 HW1           1 RES     
    3060 HW2          1.5210    14.4490   -72.7100 HW2           1 RES     
    3061 OW          10.5030     4.3330   -66.0360 OW            1 RES     
    3062 HW1         10.0240     3.5400   -65.6630 HW1           1 RES     
    3063 HW2         11.4510     4.0860   -66.2370 HW2           1 RES     
    3064 OW           6.5750    15.2770   -59.5330 OW            1 RES     
    3065 HW1          7.0540    14.8630   -60.3070 HW1           1 RES     
    3066 HW2          5.7830    15.7890   -59.8660 HW2           1 RES     
    3067 OW          10.4300    18.8770   -73.2270 OW            1 RES     
    3068 HW1          9.5110    18.5350   -73.0350 HW1           1 RES     
    3069 HW2         10.3750    19.8280   -73.5340 HW2           1 RES     
    3070 OW          15.9000    20.4830   -62.0850 OW            1 RES     
    3071 HW1         16.3900    21.3280   -61.8750 HW1           1 RES     
    3072 HW2         15.9590    19.8600   -61.3040 HW2           1 RES     
    3073 OW          10.6300     9.1690   -70.2920 OW            1 RES     
    3074 HW1         10.5450     8.3070   -70.7910 HW1           1 RES     
    3075 HW2          9.7290     9.5920   -70.2000 HW2           1 RES     
    3076 OW          -3.0660     7.7970   -61.1330 OW            1 RES     
    3077 HW1         -4.0070     7.8970   -61.4550 HW1           1 RES     
    3078 HW2         -2.8930     6.8400   -60.8990 HW2           1 RES     
    3079 OW           4.7860    10.5410   -69.6820 OW            1 RES     
    3080 HW1          5.5280    10.4780   -70.3490 HW1           1 RES     
    3081 HW2          4.5520    11.5020   -69.5330 HW2           1 RES     
    3082 OW          -1.5050    18.9890   -61.4910 OW            1 RES     
    3083 HW1         -2.3980    19.4360   -61.4660 HW1           1 RES     
    3084 HW2         -1.1290    18.9420   -60.5650 HW2           1 RES     
    3085 OW           8.5130     4.5620   -67.3270 OW            1 RES     
    3086 HW1          8.8370     3.7440   -67.8020 HW1           1 RES     
    3087 HW2          7.5690     4.4230   -67.0290 HW2           1 RES     
    3088 OW           2.9400     4.0940   -66.8810 OW            1 RES     
    3089 HW1          3.6110     4.5950   -66.3350 HW1           1 RES     
    3090 HW2          3.3420     3.2350   -67.1980 HW2           1 RES     
    3091 OW          -1.2750    14.3360   -70.9560 OW            1 RES     
    3092 HW1         -0.4690    13.7730   -70.7740 HW1           1 RES     
    3093 HW2         -1.0330    15.3030   -70.8680 HW2           1 RES     
    3094 OW          -8.5450    17.4360   -62.6960 OW            1 RES     
    3095 HW1         -9.4150    17.6910   -63.1160 HW1           1 RES     
    3096 HW2         -8.0130    18.2610   -62.5040 HW2           1 RES     
    3097 OW           8.3910    12.1940   -59.1920 OW            1 RES     
    3098 HW1          7.8260    11.4650   -59.5790 HW1           1 RES     
    3099 HW2          8.0960    13.0760   -59.5590 HW2           1 RES     
    3100 OW          -3.4970    14.9180   -72.5240 OW            1 RES     
    3101 HW1         -3.2050    15.4260   -73.3340 HW1           1 RES     
    3102 HW2         -3.0890    15.3280   -71.7080 HW2           1 RES     
    3103 OW          -4.9440     9.2950   -65.6270 OW            1 RES     
    3104 HW1         -5.3440     9.7460   -64.8300 HW1           1 RES     
    3105 HW2         -5.1490     9.8270   -66.4490 HW2           1 RES     
    3106 OW          15.0390     5.9990   -60.5180 OW            1 RES     
    3107 HW1         14.9050     5.0840   -60.1370 HW1           1 RES     
    3108 HW2         15.9840     6.2880   -60.3680 HW2           1 RES     
    3109 OW          -9.7900     1.1860   -64.3730 OW            1 RES     
    3110 HW1         -9.6430     1.1300   -65.3600 HW1           1 RES     
    3111 HW2         -9.0640     1.7340   -63.9580 HW2           1 RES     
    3112 OW          -5.7280     3.1780   -68.2560 OW            1 RES     
    3113 HW1         -5.6130     4.0830   -68.6620 HW1           1 RES     
    3114 HW2         -6.6170     3.1290   -67.7980 HW2           1 RES     
    3115 OW           9.6950    14.9540   -63.9820 OW            1 RES     
    3116 HW1         10.2300    15.6120   -63.4550 HW1           1 RES     
    3117 HW2          9.1470    14.3940   -63.3590 HW2           1 RES     
    3118 OW           6.5900     7.5710   -70.2390 OW            1 RES     
    3119 HW1          6.4570     8.4970   -70.5920 HW1           1 RES     
    3120 HW2          7.5650     7.4070   -70.0900 HW2           1 RES     
    3121 OW           3.7600    14.7620   -60.7320 OW            1 RES     
    3122 HW1          4.5350    14.1390   -60.6370 HW1           1 RES     
    3123 HW2          3.4060    14.7160   -61.6660 HW2           1 RES     
    3124 OW           5.1770     9.5370   -72.3720 OW            1 RES     
    3125 HW1          5.9540     8.9940   -72.6900 HW1           1 RES     
    3126 HW2          4.6390     9.0010   -71.7220 HW2           1 RES     
    3127 OW           0.2090     1.2790   -59.6670 OW            1 RES     
    3128 HW1          0.6970     0.6980   -60.3180 HW1           1 RES     
    3129 HW2          0.4640     2.2340   -59.8150 HW2           1 RES     
    3130 OW          17.9310    19.6740   -65.3640 OW            1 RES     
    3131 HW1         17.8010    20.3620   -64.6500 HW1           1 RES     
    3132 HW2         17.5030    18.8160   -65.0830 HW2           1 RES     
    3133 OW           7.8590    11.9810   -71.5830 OW            1 RES     
    3134 HW1          7.8080    11.1140   -71.0880 HW1           1 RES     
    3135 HW2          8.8150    12.2580   -71.6750 HW2           1 RES     
    3136 OW          16.6600    -0.0150   -63.4770 OW            1 RES     
    3137 HW1         16.5440     0.3080   -62.5380 HW1           1 RES     
    3138 HW2         16.6590    -1.0150   -63.4890 HW2           1 RES     
    3139 OW           5.3560    21.5230   -63.0450 OW            1 RES     
    3140 HW1          5.2850    20.5280   -62.9760 HW1           1 RES     
    3141 HW2          5.3420    21.7920   -64.0080 HW2           1 RES     
    3142 OW          -2.7510    11.9810   -61.2810 OW            1 RES     
    3143 HW1         -3.5930    11.4640   -61.4310 HW1           1 RES     
    3144 HW2         -2.7350    12.7750   -61.8890 HW2           1 RES     
    3145 OW          -1.0860     4.5190   -61.7420 OW            1 RES     
    3146 HW1         -1.1260     5.5060   -61.5860 HW1           1 RES     
    3147 HW2         -1.9140     4.2220   -62.2170 HW2           1 RES     
    3148 OW          -2.3700    10.5220   -69.7610 OW            1 RES     
    3149 HW1         -2.2650     9.5440   -69.9370 HW1           1 RES     
    3150 HW2         -3.3420    10.7430   -69.6730 HW2           1 RES     
    3151 OW          10.0000     2.4860   -61.5050 OW            1 RES     
    3152 HW1          9.7290     1.5260   -61.4400 HW1           1 RES     
    3153 HW2          9.1860     3.0550   -61.6190 HW2           1 RES     
    3154 OW          -2.5110    12.5470   -70.6190 OW            1 RES     
    3155 HW1         -2.6390    12.0400   -71.4710 HW1           1 RES     
    3156 HW2         -3.3800    12.9570   -70.3410 HW2           1 RES     
    3157 OW          14.1260    14.4600   -59.1920 OW            1 RES     
    3158 HW1         14.6270    13.6040   -59.3170 HW1           1 RES     
    3159 HW2         14.7120    15.2300   -59.4450 HW2           1 RES     
    3160 OW          -5.2740    13.8770   -68.8460 OW            1 RES     
    3161 HW1         -4.8260    14.6070   -69.3610 HW1           1 RES     
    3162 HW2         -4.5870    13.2280   -68.5200 HW2           1 RES     
    3163 OW           0.5260    13.5920   -62.0960 OW            1 RES     
    3164 HW1          1.2460    12.9000   -62.1290 HW1           1 RES     
    3165 HW2         -0.2670    13.2740   -62.6160 HW2           1 RES     
    3166 OW          -9.0320    17.2820   -71.8150 OW            1 RES     
    3167 HW1         -9.3920    16.3730   -72.0220 HW1           1 RES     
    3168 HW2         -9.7920    17.9160   -71.6700 HW2           1 RES     
    3169 OW           8.3490     0.7670   -68.5770 OW            1 RES     
    3170 HW1          8.7500     1.6500   -68.8190 HW1           1 RES     
    3171 HW2          7.5880     0.5660   -69.1940 HW2           1 RES     
    3172 OW           8.9900    17.6000   -59.8340 OW            1 RES     
    3173 HW1          8.0120    17.3960   -59.8080 HW1           1 RES     
    3174 HW2          9.5110    16.7480   -59.7650 HW2           1 RES     
    3175 OW          15.0320     9.0640   -69.9580 OW            1 RES     
    3176 HW1         15.7910     9.7040   -70.0710 HW1           1 RES     
    3177 HW2         14.1650     9.5480   -70.0820 HW2           1 RES     
    3178 OW          -6.5220    -0.9120   -63.2580 OW            1 RES     
    3179 HW1         -6.9750    -0.5500   -62.4430 HW1           1 RES     
    3180 HW2         -6.1810    -0.1550   -63.8150 HW2           1 RES     
    3181 OW          -7.6990    15.2860   -72.9140 OW            1 RES     
    3182 HW1         -7.4480    16.1430   -73.3620 HW1           1 RES     
    3183 HW2         -8.2870    14.7510   -73.5210 HW2           1 RES     
    3184 OW          10.7930     6.1920   -71.5810 OW            1 RES     
    3185 HW1         10.9830     5.3960   -72.1550 HW1           1 RES     
    3186 HW2         10.2250     5.9160   -70.8050 HW2           1 RES     
    3187 OW          -7.2360     5.6260   -68.3200 OW            1 RES     
    3188 HW1         -7.1150     6.6180   -68.3500 HW1           1 RES     
    3189 HW2         -8.2060     5.4120   -68.2000 HW2           1 RES     
    3190 OW          17.5900     4.1020   -63.9710 OW            1 RES     
    3191 HW1         17.5520     3.2460   -64.4850 HW1           1 RES     
    3192 HW2         16.9260     4.7480   -64.3480 HW2           1 RES     
    3193 OW           2.8830     9.0640   -68.9720 OW            1 RES     
    3194 HW1          2.2540     9.6080   -68.4180 HW1           1 RES     
    3195 HW2          2.3950     8.6930   -69.7630 HW2           1 RES     
    3196 OW          -5.9780    10.2780   -68.4380 OW            1 RES     
    3197 HW1         -6.8010     9.8060   -68.7530 HW1           1 RES     
    3198 HW2         -5.1710     9.8470   -68.8410 HW2           1 RES     
    3199 OW           4.1040    16.2440   -68.2910 OW            1 RES     
    3200 HW1          3.3690    16.8960   -68.1100 HW1           1 RES     
    3201 HW2          3.7110    15.3560   -68.5300 HW2           1 RES     
    3202 OW           3.7520     8.0910   -61.4940 OW            1 RES     
    3203 HW1          3.3770     7.2190   -61.8070 HW1           1 RES     
    3204 HW2          3.0030     8.7140   -61.2670 HW2           1 RES     
    3205 OW           8.1060    12.1740   -64.1060 OW            1 RES     
    3206 HW1          8.9370    11.6920   -64.3790 HW1           1 RES     
    3207 HW2          7.7140    12.6400   -64.9000 HW2           1 RES     
    3208 OW          -2.5530    20.4340   -68.5520 OW            1 RES     
    3209 HW1         -3.5220    20.6520   -68.6590 HW1           1 RES     
    3210 HW2         -2.3700    20.1840   -67.6010 HW2           1 RES     
    3211 OW          -5.8740    19.0010   -66.7080 OW            1 RES     
    3212 HW1         -4.9310    18.8910   -66.3970 HW1           1 RES     
    3213 HW2         -6.1730    18.1640   -67.1680 HW2           1 RES     
    3214 OW          13.9900     1.6250   -63.6020 OW            1 RES     
    3215 HW1         14.6130     0.8440   -63.6100 HW1           1 RES     
    3216 HW2         14.5180     2.4740   -63.5870 HW2           1 RES     
    3217 OW          -4.7970    13.0980   -59.2470 OW            1 RES     
    3218 HW1         -5.6100    13.4570   -59.7030 HW1           1 RES     
    3219 HW2         -4.0260    13.1060   -59.8840 HW2           1 RES     
    3220 OW           3.2930    11.6710   -62.0370 OW            1 RES     
    3221 HW1          3.0340    10.9180   -61.4320 HW1           1 RES     
    3222 HW2          3.3260    12.5230   -61.5140 HW2           1 RES     
    3223 OW          -4.3370     6.7580   -59.2380 OW            1 RES     
    3224 HW1         -4.1700     7.7440   -59.2280 HW1           1 RES     
    3225 HW2         -5.3220     6.5860   -59.2060 HW2           1 RES     
    3226 OW           5.4460    22.1550   -60.8650 OW            1 RES     
    3227 HW1          5.1260    22.9470   -61.3840 HW1           1 RES     
    3228 HW2          6.4460    22.1340   -60.8710 HW2           1 RES     
    3229 OW          14.7030    19.1430   -66.2180 OW            1 RES     
    3230 HW1         15.4100    19.3230   -65.5340 HW1           1 RES     
    3231 HW2         13.8570    19.6070   -65.9530 HW2           1 RES     
    3232 OW          10.5300    12.4570   -66.9660 OW            1 RES     
    3233 HW1         10.3830    13.3750   -66.5990 HW1           1 RES     
    3234 HW2         10.4520    12.4790   -67.9630 HW2           1 RES     
    3235 OW          -0.2390    10.5790   -68.2940 OW            1 RES     
    3236 HW1          0.1050     9.7020   -67.9590 HW1           1 RES     
    3237 HW2          0.4980    11.2550   -68.2750 HW2           1 RES     
    3238 OW           3.9790    20.2770   -64.8660 OW            1 RES     
    3239 HW1          3.4510    19.4340   -64.7680 HW1           1 RES     
    3240 HW2          3.3630    21.0330   -65.0890 HW2           1 RES     
    3241 OW          14.6370    13.7040   -69.5830 OW            1 RES     
    3242 HW1         15.3390    13.9060   -70.2650 HW1           1 RES     
    3243 HW2         14.5250    14.4900   -68.9760 HW2           1 RES     
    3244 OW           5.3240    20.8230   -73.1090 OW            1 RES     
    3245 HW1          4.3780    20.5090   -73.0380 HW1           1 RES     
    3246 HW2          5.9090    20.2570   -72.5270 HW2           1 RES     
    3247 OW          -0.9250     6.1610   -68.0330 OW            1 RES     
    3248 HW1         -1.7240     6.5540   -68.4870 HW1           1 RES     
    3249 HW2         -0.5570     6.8190   -67.3760 HW2           1 RES     
    3250 OW          16.9710    17.2290   -63.6540 OW            1 RES     
    3251 HW1         16.2010    17.7260   -63.2560 HW1           1 RES     
    3252 HW2         17.3450    16.5950   -62.9780 HW2           1 RES     
    3253 OW          -1.1650     1.7680   -62.2960 OW            1 RES     
    3254 HW1         -2.0870     2.0320   -62.0180 HW1           1 RES     
    3255 HW2         -1.0760     0.7720   -62.2560 HW2           1 RES     
    3256 OW           8.6740    19.2060   -67.7900 OW            1 RES     
    3257 HW1          9.4630    19.3190   -67.1880 HW1           1 RES     
    3258 HW2          8.3200    18.2740   -67.7050 HW2           1 RES     
    3259 OW          11.3710    11.9600   -61.4970 OW            1 RES     
    3260 HW1         12.3670    12.0160   -61.4340 HW1           1 RES     
    3261 HW2         11.0920    11.0000   -61.5200 HW2           1 RES     
    3262 OW          -6.4370     4.5290   -63.3940 OW            1 RES     
    3263 HW1         -5.7940     4.8210   -64.1010 HW1           1 RES     
    3264 HW2         -5.9510     3.9980   -62.6990 HW2           1 RES     
    3265 OW          -4.6760    12.6000   -72.0870 OW            1 RES     
    3266 HW1         -5.0520    11.6900   -71.9180 HW1           1 RES     
    3267 HW2         -5.1880    13.2770   -71.5580 HW2           1 RES     
    3268 OW          -9.1390    10.7640   -65.1220 OW            1 RES     
    3269 HW1         -9.7800    10.3650   -65.7770 HW1           1 RES     
    3270 HW2         -9.0860    11.7530   -65.2670 HW2           1 RES     
    3271 OW           5.6440    16.4700   -64.8390 OW            1 RES     
    3272 HW1          6.3250    16.9320   -65.4070 HW1           1 RES     
    3273 HW2          6.1030    15.9910   -64.0910 HW2           1 RES     
    3274 OW           4.8150     2.9080   -65.5970 OW            1 RES     
    3275 HW1          4.7260     1.9630   -65.9110 HW1           1 RES     
    3276 HW2          5.5130     3.3760   -66.1390 HW2           1 RES     
    3277 OW          -3.1670    17.6560   -67.7090 OW            1 RES     
    3278 HW1         -4.0430    17.1820   -67.6210 HW1           1 RES     
    3279 HW2         -3.2260    18.3320   -68.4440 HW2           1 RES     
    3280 OW           5.4110     2.8130   -63.4610 OW            1 RES     
    3281 HW1          4.4860     2.5110   -63.2350 HW1           1 RES     
    3282 HW2          5.9170     2.0560   -63.8770 HW2           1 RES     
    3283 OW          -6.4470     9.0700   -70.7960 OW            1 RES     
    3284 HW1         -6.2050     9.6410   -71.5790 HW1           1 RES     
    3285 HW2         -7.0680     8.3430   -71.0910 HW2           1 RES     
    3286 OW          -6.0960     7.4710   -62.0100 OW            1 RES     
    3287 HW1         -6.8130     6.9600   -62.4820 HW1           1 RES     
    3288 HW2         -6.3700     7.6340   -61.0620 HW2           1 RES     
    3289 OW          -5.2710    11.5610   -63.3750 OW            1 RES     
    3290 HW1         -5.6210    12.1310   -62.6330 HW1           1 RES     
    3291 HW2         -4.2940    11.7350   -63.4990 HW2           1 RES     
    3292 OW           2.8600    21.8160   -71.1920 OW            1 RES     
    3293 HW1          1.8660    21.7260   -71.2470 HW1           1 RES     
    3294 HW2          3.1390    22.6860   -71.6000 HW2           1 RES     
    3295 OW           9.0140    17.3340   -62.4050 OW            1 RES     
    3296 HW1          8.6070    17.2250   -63.3110 HW1           1 RES     
    3297 HW2          8.6390    16.6440   -61.7850 HW2           1 RES     
    3298 OW          15.9260    18.2860   -73.0660 OW            1 RES     
    3299 HW1         15.0350    17.8340   -73.0780 HW1           1 RES     
    3300 HW2         15.7980    19.2780   -73.0800 HW2           1 RES     
    3301 OW          -4.1100     8.9180   -72.4460 OW            1 RES     
    3302 HW1         -3.9070     9.8130   -72.0510 HW1           1 RES     
    3303 HW2         -4.8060     9.0180   -73.1580 HW2           1 RES     
    3304 OW          16.6460     2.1690   -70.2910 OW            1 RES     
    3305 HW1         16.6760     2.9240   -69.6360 HW1           1 RES     
    3306 HW2         15.7040     1.8480   -70.3870 HW2           1 RES     
    3307 OW          11.6500    22.2070   -69.5850 OW            1 RES     
    3308 HW1         12.4680    22.5640   -70.0340 HW1           1 RES     
    3309 HW2         11.1870    22.9470   -69.0950 HW2           1 RES     
    3310 OW          -4.5950     4.8700   -61.2020 OW            1 RES     
    3311 HW1         -4.8250     5.8420   -61.2550 HW1           1 RES     
    3312 HW2         -3.6320     4.7680   -60.9500 HW2           1 RES     
    3313 OW          11.2230     9.2000   -63.5340 OW            1 RES     
    3314 HW1         10.6770     9.1730   -62.6970 HW1           1 RES     
    3315 HW2         12.1850     9.0440   -63.3100 HW2           1 RES     
    3316 OW          -7.6600    15.0310   -62.0590 OW            1 RES     
    3317 HW1         -7.8450    14.9780   -61.0780 HW1           1 RES     
    3318 HW2         -6.8940    14.4310   -62.2870 HW2           1 RES     
    3319 OW          -0.1560    11.8120   -60.6470 OW            1 RES     
    3320 HW1         -0.7330    12.6240   -60.5660 HW1           1 RES     
    3321 HW2         -0.7310    11.0050   -60.7770 HW2           1 RES     
    3322 OW           0.6190     6.3150   -69.6010 OW            1 RES     
    3323 HW1          0.8110     7.1680   -69.1170 HW1           1 RES     
    3324 HW2         -0.2370     6.4060   -70.1110 HW2           1 RES     
    3325 OW          -3.6790    14.8750   -61.1530 OW            1 RES     
    3326 HW1         -3.2920    15.7740   -61.3540 HW1           1 RES     
    3327 HW2         -4.6690    14.8980   -61.2970 HW2           1 RES     
    3328 OW           1.1170     2.2040   -61.9160 OW            1 RES     
    3329 HW1          2.0130     1.7980   -61.7410 HW1           1 RES     
    3330 HW2          1.2030     3.2000   -61.9530 HW2           1 RES     
    3331 OW          -0.3690     2.9010   -71.1520 OW            1 RES     
    3332 HW1          0.0350     1.9870   -71.1470 HW1           1 RES     
    3333 HW2         -1.3660     2.8260   -71.1660 HW2           1 RES     
    3334 OW          -3.1190     9.1390   -63.3350 OW            1 RES     
    3335 HW1         -3.8660     9.6420   -62.9010 HW1           1 RES     
    3336 HW2         -2.3270     9.1230   -62.7250 HW2           1 RES     
    3337 OW          -7.7570    18.5120   -73.5350 OW            1 RES     
    3338 HW1         -8.6690    18.8540   -73.3140 HW1           1 RES     
    3339 HW2         -7.1590    18.6170   -72.7400 HW2           1 RES     
    3340 OW          -7.7820    19.8070   -67.4740 OW            1 RES     
    3341 HW1         -8.0790    19.4810   -66.5770 HW1           1 RES     
    3342 HW2         -7.6400    20.7960   -67.4390 HW2           1 RES     
    3343 OW          -2.2050    22.8670   -62.0880 OW            1 RES     
    3344 HW1         -1.9390    21.9660   -61.7450 HW1           1 RES     
    3345 HW2         -1.9490    22.9470   -63.0510 HW2           1 RES     
    3346 OW          -1.3680    -1.1150   -66.4890 OW            1 RES     
    3347 HW1         -0.9960    -0.4450   -65.8480 HW1           1 RES     
    3348 HW2         -1.2570    -0.7790   -67.4250 HW2           1 RES     
    3349 OW           2.0110    12.7590   -59.7660 OW            1 RES     
    3350 HW1          2.8170    12.9060   -59.1930 HW1           1 RES     
    3351 HW2          1.2770    13.3710   -59.4730 HW2           1 RES     
    3352 OW           8.2530     9.5610   -62.6510 OW            1 RES     
    3353 HW1          7.7240    10.3300   -62.2940 HW1           1 RES     
    3354 HW2          7.6440     8.7860   -62.8200 HW2           1 RES     
    3355 OW          -5.2020     9.5920   -59.8360 OW            1 RES     
    3356 HW1         -5.6290    10.4180   -59.4680 HW1           1 RES     
    3357 HW2         -5.2200     9.6240   -60.8360 HW2           1 RES     
    3358 OW           1.9350     7.7490   -59.2000 OW            1 RES     
    3359 HW1          2.4500     7.1510   -59.8130 HW1           1 RES     
    3360 HW2          1.4460     8.4370   -59.7370 HW2           1 RES     
    3361 OW           8.1700    12.7990   -67.5200 OW            1 RES     
    3362 HW1          8.3710    12.0340   -66.9100 HW1           1 RES     
    3363 HW2          7.8600    13.5830   -66.9810 HW2           1 RES     
    3364 OW          12.3570    -0.3260   -63.2520 OW            1 RES     
    3365 HW1         11.5680    -0.1030   -62.6810 HW1           1 RES     
    3366 HW2         12.1530    -0.1010   -64.2050 HW2           1 RES     
    3367 OW          13.0450     2.2100   -65.5130 OW            1 RES     
    3368 HW1         12.6870     2.8850   -64.8690 HW1           1 RES     
    3369 HW2         12.3420     1.5260   -65.7050 HW2           1 RES     
    3370 OW          -7.5770     6.1910   -72.4050 OW            1 RES     
    3371 HW1         -7.3640     6.1900   -71.4280 HW1           1 RES     
    3372 HW2         -7.1790     7.0030   -72.8320 HW2           1 RES     
    3373 OW          13.6750     6.2200   -63.5250 OW            1 RES     
    3374 HW1         13.7710     6.7850   -62.7060 HW1           1 RES     
    3375 HW2         13.1780     5.3830   -63.2960 HW2           1 RES     
    3376 OW           6.3470     0.4040   -71.0960 OW            1 RES     
    3377 HW1          5.9140     1.1910   -70.6590 HW1           1 RES     
    3378 HW2          5.6470    -0.1700   -71.5220 HW2           1 RES     
    3379 OW          -2.1930    10.1980   -67.2900 OW            1 RES     
    3380 HW1         -2.6920    11.0120   -67.5870 HW1           1 RES     
    3381 HW2         -1.6570    10.4150   -66.4730 HW2           1 RES     
    3382 OW          -2.5400     9.3970   -59.3720 OW            1 RES     
    3383 HW1         -1.5950     9.6920   -59.2370 HW1           1 RES     
    3384 HW2         -3.0780    10.1570   -59.7380 HW2           1 RES     
    3385 OW          -9.5810    20.7840   -68.8850 OW            1 RES     
    3386 HW1         -9.7910    20.5780   -67.9300 HW1           1 RES     
    3387 HW2         -9.0260    20.0460   -69.2720 HW2           1 RES     
    3388 OW          16.0750    14.0960   -60.8980 OW            1 RES     
    3389 HW1         16.4900    13.1960   -60.7730 HW1           1 RES     
    3390 HW2         15.2150    14.0010   -61.3990 HW2           1 RES     
    3391 OW          13.3210    14.8450   -73.2500 OW            1 RES     
    3392 HW1         12.7400    14.0710   -73.0000 HW1           1 RES     
    3393 HW2         14.2190    14.5090   -73.5350 HW2           1 RES     
    3394 OW           8.1550     8.8600   -72.7150 OW            1 RES     
    3395 HW1          8.9880     9.0910   -72.2130 HW1           1 RES     
    3396 HW2          7.8680     7.9320   -72.4770 HW2           1 RES     
    3397 OW          11.4640    22.3260   -71.9820 OW            1 RES     
    3398 HW1         10.6170    22.5810   -71.5180 HW1           1 RES     
    3399 HW2         11.7020    21.3820   -71.7500 HW2           1 RES     
    3400 OW          -5.3280    14.2330   -73.5340 OW            1 RES     
    3401 HW1         -6.2190    13.7820   -73.5350 HW1           1 RES     
    3402 HW2         -5.4560    15.2250   -73.5320 HW2           1 RES     
    3403 OW          13.5930     8.3790   -67.5110 OW            1 RES     
    3404 HW1         13.9950     9.2920   -67.4560 HW1           1 RES     
    3405 HW2         13.0270     8.3110   -68.3320 HW2           1 RES     
    3406 OW          -8.4740    17.7550   -60.1530 OW            1 RES     
    3407 HW1         -9.4610    17.6240   -60.0690 HW1           1 RES     
    3408 HW2         -8.2680    18.7340   -60.1760 HW2           1 RES     
    3409 OW           3.6230    13.0740   -73.5270 OW            1 RES     
    3410 HW1          4.4990    12.6290   -73.3470 HW1           1 RES     
    3411 HW2          3.6300    13.9960   -73.1380 HW2           1 RES     
    3412 OW           1.7180     1.8410   -65.9650 OW            1 RES     
    3413 HW1          1.3570     2.6230   -66.4720 HW1           1 RES     
    3414 HW2          2.2080     2.1650   -65.1560 HW2           1 RES     
    3415 OW          14.0310     9.2290   -72.9470 OW            1 RES     
    3416 HW1         13.3970     9.6120   -72.2760 HW1           1 RES     
    3417 HW2         14.9670     9.3070   -72.6050 HW2           1 RES     
    3418 OW          11.2580     9.1330   -66.4740 OW            1 RES     
    3419 HW1         12.1710     9.4420   -66.2070 HW1           1 RES     
    3420 HW2         10.6730     9.0820   -65.6640 HW2           1 RES     
    3421 OW           0.2470    15.0430   -67.9890 OW            1 RES     
    3422 HW1          0.3800    16.0180   -67.8160 HW1           1 RES     
    3423 HW2         -0.0730    14.9110   -68.9270 HW2           1 RES     
    3424 OW          -0.2770     9.5580   -71.4320 OW            1 RES     
    3425 HW1         -0.7510    10.4230   -71.2690 HW1           1 RES     
    3426 HW2         -0.9480     8.8250   -71.5460 HW2           1 RES     
    3427 OW           2.4540     1.2200   -70.8550 OW            1 RES     
    3428 HW1          3.1500     1.7930   -70.4230 HW1           1 RES     
    3429 HW2          2.1910     1.6190   -71.7330 HW2           1 RES     
    3430 OW           5.6320    11.6180   -59.6350 OW            1 RES     
    3431 HW1          4.7690    11.5930   -60.1380 HW1           1 RES     
    3432 HW2          5.7620    12.5270   -59.2400 HW2           1 RES     
    3433 OW          -2.0290    14.1040   -63.6490 OW            1 RES     
    3434 HW1         -1.5160    14.9620   -63.6390 HW1           1 RES     
    3435 HW2         -2.4060    13.9500   -64.5620 HW2           1 RES     
    3436 OW           6.7050     4.2580   -69.5230 OW            1 RES     
    3437 HW1          7.2680     5.0830   -69.5610 HW1           1 RES     
    3438 HW2          7.2930     3.4590   -69.4000 HW2           1 RES     
    3439 OW          -6.5210    11.3970   -70.2520 OW            1 RES     
    3440 HW1         -7.0280    11.8770   -70.9680 HW1           1 RES     
    3441 HW2         -5.8180    12.0030   -69.8780 HW2           1 RES     
    3442 OW           5.4110    12.8900   -62.7930 OW            1 RES     
    3443 HW1          5.4260    11.9230   -62.5440 HW1           1 RES     
    3444 HW2          6.3450    13.2050   -62.9630 HW2           1 RES     
    3445 OW          -2.4560     2.4690   -59.1920 OW            1 RES     
    3446 HW1         -2.9980     3.2560   -59.4830 HW1           1 RES     
    3447 HW2         -1.7350     2.2940   -59.8620 HW2           1 RES     
    3448 OW          13.7320    19.0980   -62.6750 OW            1 RES     
    3449 HW1         14.0740    18.4000   -63.3030 HW1           1 RES     
    3450 HW2         14.0300    18.8860   -61.7440 HW2           1 RES     
    3451 OW          -0.6970     1.3370   -67.6480 OW            1 RES     
    3452 HW1          0.0840     0.9610   -67.1510 HW1           1 RES     
    3453 HW2         -1.1500     2.0290   -67.0850 HW2           1 RES     
    3454 OW          -5.3690     7.0810   -64.1480 OW            1 RES     
    3455 HW1         -4.8940     6.7170   -64.9490 HW1           1 RES     
    3456 HW2         -4.8650     7.8670   -63.7900 HW2           1 RES     
    3457 OW           8.0860     1.7300   -64.1740 OW            1 RES     
    3458 HW1          8.3240     0.7590   -64.1950 HW1           1 RES     
    3459 HW2          8.9200     2.2790   -64.2260 HW2           1 RES     
    3460 OW          -1.4470    22.0680   -59.6040 OW            1 RES     
    3461 HW1         -1.5520    21.0990   -59.3790 HW1           1 RES     
    3462 HW2         -0.4840    22.2670   -59.7830 HW2           1 RES     
    3463 OW           0.5790    22.2990   -67.4150 OW            1 RES     
    3464 HW1         -0.3820    22.2460   -67.1460 HW1           1 RES     
    3465 HW2          1.0570    22.9470   -66.8210 HW2           1 RES     
    3466 OW          10.0130     2.9040   -71.0490 OW            1 RES     
    3467 HW1         10.0590     3.4650   -70.2230 HW1           1 RES     
    3468 HW2          9.9110     3.4950   -71.8490 HW2           1 RES     
    3469 OW          10.0870    -1.1170   -65.3580 OW            1 RES     
    3470 HW1         10.0310    -0.5940   -64.5080 HW1           1 RES     
    3471 HW2         10.4590    -0.5370   -66.0830 HW2           1 RES     
    3472 OW          11.9570    17.3000   -64.2050 OW            1 RES     
    3473 HW1         12.2210    17.1730   -63.2500 HW1           1 RES     
    3474 HW2         12.7790    17.3650   -64.7720 HW2           1 RES     
    3475 OW           1.2150     0.7090   -63.6410 OW            1 RES     
    3476 HW1          0.6930    -0.1190   -63.4390 HW1           1 RES     
    3477 HW2          2.1820     0.4770   -63.7440 HW2           1 RES     
    3478 OW           8.4730     5.8730   -61.2930 OW            1 RES     
    3479 HW1          9.3370     6.3750   -61.2890 HW1           1 RES     
    3480 HW2          7.7170     6.5110   -61.4420 HW2           1 RES     
    3481 OW          13.3830    19.4730   -69.0330 OW            1 RES     
    3482 HW1         12.7430    18.7060   -69.0220 HW1           1 RES     
    3483 HW2         13.4800    19.8410   -68.1080 HW2           1 RES     
    3484 OW          11.8620    17.2540   -70.4940 OW            1 RES     
    3485 HW1         11.2510    18.0450   -70.5070 HW1           1 RES     
    3486 HW2         11.3210    16.4130   -70.5020 HW2           1 RES     
    3487 OW          -9.7920     6.9550   -68.3810 OW            1 RES     
    3488 HW1         -9.4050     6.8980   -69.3010 HW1           1 RES     
    3489 HW2         -9.5170     7.8180   -67.9560 HW2           1 RES     
    3490 OW          -0.5090    15.4080   -73.1060 OW            1 RES     
    3491 HW1         -1.1550    14.6460   -73.1360 HW1           1 RES     
    3492 HW2         -0.9670    16.2460   -73.4040 HW2           1 RES     
    3493 OW          -8.5510     4.4670   -62.7200 OW            1 RES     
    3494 HW1         -8.9700     3.5590   -62.7250 HW1           1 RES     
    3495 HW2         -9.2510     5.1590   -62.8950 HW2           1 RES     
    3496 OW           5.8280    17.7780   -61.8280 OW            1 RES     
    3497 HW1          5.6640    18.7570   -61.7120 HW1           1 RES     
    3498 HW2          6.7290    17.6370   -62.2400 HW2           1 RES     
    3499 OW          12.4200    16.7820   -67.2350 OW            1 RES     
    3500 HW1         12.3440    17.7650   -67.0710 HW1           1 RES     
    3501 HW2         12.4050    16.6050   -68.2190 HW2           1 RES     
    3502 OW           0.7890    19.0270   -62.5010 OW            1 RES     
    3503 HW1          0.0450    18.5820   -62.9990 HW1           1 RES     
    3504 HW2          0.7900    20.0060   -62.7070 HW2           1 RES     
    3505 OW          17.5370    11.9200   -63.0960 OW            1 RES     
    3506 HW1         16.5730    11.9840   -62.8400 HW1           1 RES     
    3507 HW2         17.7800    10.9620   -63.2470 HW2           1 RES     
    3508 OW          14.7000     2.8770   -67.8520 OW            1 RES     
    3509 HW1         13.8580     3.1050   -67.3650 HW1           1 RES     
    3510 HW2         14.9570     3.6380   -68.4490 HW2           1 RES     
    3511 OW           1.9770    -1.1170   -67.0790 OW            1 RES     
    3512 HW1          1.2070    -0.9820   -67.7020 HW1           1 RES     
    3513 HW2          2.0730    -0.3160   -66.4880 HW2           1 RES     
    3514 OW           6.4300     7.6080   -59.7970 OW            1 RES     
    3515 HW1          5.6530     7.9150   -59.2480 HW1           1 RES     
    3516 HW2          7.1770     7.3310   -59.1920 HW2           1 RES     
    3517 OW           0.0340     7.3660   -61.4030 OW            1 RES     
    3518 HW1          0.6630     8.0520   -61.7680 HW1           1 RES     
    3519 HW2          0.5370     6.7280   -60.8190 HW2           1 RES     
    3520 OW          17.5440    14.0480   -62.5350 OW            1 RES     
    3521 HW1         17.9250    14.7480   -61.9320 HW1           1 RES     
    3522 HW2         17.5320    14.3870   -63.4760 HW2           1 RES     
    3523 OW           4.5730    20.7800   -70.2810 OW            1 RES     
    3524 HW1          3.8670    20.4880   -69.6370 HW1           1 RES     
    3525 HW2          5.3350    20.1310   -70.2570 HW2           1 RES     
    3526 OW          16.8870     5.1730   -62.1050 OW            1 RES     
    3527 HW1         16.8440     6.1310   -62.3880 HW1           1 RES     
    3528 HW2         15.9670     4.7810   -62.1150 HW2           1 RES     
    3529 OW          -2.0180     0.4320   -71.5040 OW            1 RES     
    3530 HW1         -2.6630     1.1510   -71.7590 HW1           1 RES     
    3531 HW2         -1.2670     0.4070   -72.1650 HW2           1 RES     
    3532 OW          12.4410    15.7730   -59.7170 OW            1 RES     
    3533 HW1         12.8500    15.8380   -60.6270 HW1           1 RES     
    3534 HW2         11.8220    16.5460   -59.5730 HW2           1 RES     
    3535 OW           2.3350    12.6750   -68.8400 OW            1 RES     
    3536 HW1          3.1330    13.2700   -68.9260 HW1           1 RES     
    3537 HW2          2.6220    11.7750   -68.5120 HW2           1 RES     
    3538 OW          -4.3740     7.2920   -69.1580 OW            1 RES     
    3539 HW1         -5.2920     7.6560   -69.0120 HW1           1 RES     
    3540 HW2         -3.7880     8.0060   -69.5430 HW2           1 RES     
    3541 OW           4.0450     9.5060   -63.1530 OW            1 RES     
    3542 HW1          3.7160    10.2810   -63.6910 HW1           1 RES     
    3543 HW2          4.7040     9.8270   -62.4720 HW2           1 RES     
    3544 OW           2.1540     6.8610   -72.2000 OW            1 RES     
    3545 HW1          1.3380     6.7730   -71.6290 HW1           1 RES     
    3546 HW2          1.8840     6.9270   -73.1610 HW2           1 RES     
    3547 OW          -0.7020    12.5250   -66.9370 OW            1 RES     
    3548 HW1         -1.3510    13.0950   -66.4330 HW1           1 RES     
    3549 HW2          0.2160    12.9140   -66.8570 HW2           1 RES     
    3550 OW           3.5250     4.6110   -73.4160 OW            1 RES     
    3551 HW1          2.9170     4.8490   -72.6600 HW1           1 RES     
    3552 HW2          3.6390     3.6180   -73.4530 HW2           1 RES     
    3553 OW          -8.1730    13.4320   -63.7720 OW            1 RES     
    3554 HW1         -7.6480    12.5840   -63.8250 HW1           1 RES     
    3555 HW2         -9.0980    13.2330   -63.4480 HW2           1 RES     
    3556 OW          -9.0400     4.3490   -66.4640 OW            1 RES     
    3557 HW1         -9.7920     4.0310   -65.8870 HW1           1 RES     
    3558 HW2         -8.5450     3.5610   -66.8310 HW2           1 RES     
    3559 OW           2.8290     0.3890   -68.4390 OW            1 RES     
    3560 HW1          3.6900     0.1200   -68.0090 HW1           1 RES     
    3561 HW2          2.6320    -0.2240   -69.2050 HW2           1 RES     
    3562 OW          -0.2940     1.6520   -65.0940 OW            1 RES     
    3563 HW1         -0.8610     1.2070   -64.4020 HW1           1 RES     
    3564 HW2         -0.0640     2.5780   -64.7930 HW2           1 RES     
    3565 OW          17.5460    14.0590   -72.9310 OW            1 RES     
    3566 HW1         17.4710    14.6510   -72.1300 HW1           1 RES     
    3567 HW2         17.9220    13.1730   -72.6580 HW2           1 RES     
    3568 OW           8.5500    12.3410   -61.9580 OW            1 RES     
    3569 HW1          9.1890    12.0690   -61.2380 HW1           1 RES     
    3570 HW2          8.1800    13.2460   -61.7500 HW2           1 RES     
    3571 OW          -5.6560    20.1190   -72.1710 OW            1 RES     
    3572 HW1         -6.2260    20.8070   -72.6200 HW1           1 RES     
    3573 HW2         -4.6960    20.2780   -72.4030 HW2           1 RES     
    3574 OW          13.0810    19.4290   -71.5380 OW            1 RES     
    3575 HW1         13.8280    20.0920   -71.5480 HW1           1 RES     
    3576 HW2         13.4570    18.5020   -71.5540 HW2           1 RES     
    3577 OW          -1.5110     7.3980   -59.2810 OW            1 RES     
    3578 HW1         -1.5080     6.4030   -59.1930 HW1           1 RES     
    3579 HW2         -0.5750     7.7430   -59.2140 HW2           1 RES     
    3580 OW          -2.5550    19.3720   -63.7790 OW            1 RES     
    3581 HW1         -2.6560    20.3280   -63.5060 HW1           1 RES     
    3582 HW2         -2.4250    19.3190   -64.7690 HW2           1 RES     
    3583 OW          -3.8540     4.5500   -69.9000 OW            1 RES     
    3584 HW1         -2.8590     4.6270   -69.9510 HW1           1 RES     
    3585 HW2         -4.1420     3.6720   -70.2830 HW2           1 RES     
    3586 OW           4.8510     7.6530   -67.9230 OW            1 RES     
    3587 HW1          4.6820     7.6980   -68.9070 HW1           1 RES     
    3588 HW2          4.3190     8.3620   -67.4600 HW2           1 RES     
    3589 OW          -8.4370     3.2860   -69.2380 OW            1 RES     
    3590 HW1         -9.1460     3.9250   -69.5350 HW1           1 RES     
    3591 HW2         -8.8580     2.5240   -68.7460 HW2           1 RES     
    3592 OW          12.6900    14.2650   -64.1850 OW            1 RES     
    3593 HW1         11.7120    14.1100   -64.3210 HW1           1 RES     
    3594 HW2         12.8660    15.2480   -64.1130 HW2           1 RES     
    3595 OW          13.6170     4.0040   -71.0250 OW            1 RES     
    3596 HW1         14.4860     3.7150   -70.6250 HW1           1 RES     
    3597 HW2         12.8940     3.9380   -70.3370 HW2           1 RES     
    3598 OW           7.0780     9.1200   -67.6690 OW            1 RES     
    3599 HW1          6.3260     9.2650   -68.3110 HW1           1 RES     
    3600 HW2          6.8930     8.3090   -67.1140 HW2           1 RES     
    3601 OW          -1.6320    16.8340   -59.7110 OW            1 RES     
    3602 HW1         -2.4730    17.2960   -59.9920 HW1           1 RES     
    3603 HW2         -1.3170    16.2370   -60.4480 HW2           1 RES     
    3604 OW           1.7040    20.1970   -67.0600 OW            1 RES     
    3605 HW1          2.2900    19.5030   -66.6440 HW1           1 RES     
    3606 HW2          2.2710    20.8960   -67.4960 HW2           1 RES     
    3607 OW           6.8080     1.6730   -61.2650 OW            1 RES     
    3608 HW1          7.2540     1.8530   -62.1410 HW1           1 RES     
    3609 HW2          5.8510     1.9600   -61.3120 HW2           1 RES     
    3610 OW          -5.9550    18.1130   -59.4810 OW            1 RES     
    3611 HW1         -5.5240    19.0130   -59.4310 HW1           1 RES     
    3612 HW2         -5.2850    17.4090   -59.2430 HW2           1 RES     
    3613 OW           9.4670    20.1930   -71.5640 OW            1 RES     
    3614 HW1          9.0480    21.0480   -71.8690 HW1           1 RES     
    3615 HW2         10.0150    20.3640   -70.7440 HW2           1 RES     
    3616 OW          -7.3550    19.6600   -70.7090 OW            1 RES     
    3617 HW1         -7.8640    18.8010   -70.6640 HW1           1 RES     
    3618 HW2         -7.9190    20.3600   -71.1470 HW2           1 RES     
    3619 OW           3.6040    16.0760   -72.4240 OW            1 RES     
    3620 HW1          2.9560    16.1300   -73.1830 HW1           1 RES     
    3621 HW2          4.4260    16.6000   -72.6490 HW2           1 RES     
    3622 OW           0.0250    20.9140   -65.0740 OW            1 RES     
    3623 HW1          0.3220    21.6760   -64.5000 HW1           1 RES     
    3624 HW2         -0.9680    20.9500   -65.1890 HW2           1 RES     
    3625 OW           5.1440    17.8160   -69.4260 OW            1 RES     
    3626 HW1          4.5940    18.5120   -68.9650 HW1           1 RES     
    3627 HW2          5.0820    17.9430   -70.4160 HW2           1 RES     
    3628 OW          -2.5620     7.5070   -66.5350 OW            1 RES     
    3629 HW1         -2.8730     8.4020   -66.2170 HW1           1 RES     
    3630 HW2         -2.9300     6.7940   -65.9370 HW2           1 RES     
    3631 OW           9.7580    15.4640   -66.1210 OW            1 RES     
    3632 HW1         10.6010    15.9710   -66.3010 HW1           1 RES     
    3633 HW2          9.0620    16.0890   -65.7670 HW2           1 RES     
    3634 OW           3.9760     5.3710   -64.2180 OW            1 RES     
    3635 HW1          3.5420     4.6330   -63.7030 HW1           1 RES     
    3636 HW2          4.9400     5.1500   -64.3690 HW2           1 RES     
    3637 OW           2.9090     0.9230   -59.8930 OW            1 RES     
    3638 HW1          2.5490     0.2980   -59.2010 HW1           1 RES     
    3639 HW2          3.5640     0.4380   -60.4720 HW2           1 RES     
    3640 OW           1.2590     3.1210   -69.6880 OW            1 RES     
    3641 HW1          1.6030     2.4800   -69.0030 HW1           1 RES     
    3642 HW2          1.1590     4.0270   -69.2760 HW2           1 RES     
    3643 OW          13.7820     0.0520   -66.7510 OW            1 RES     
    3644 HW1         14.2350     0.9130   -66.9760 HW1           1 RES     
    3645 HW2         14.3600    -0.4780   -66.1300 HW2           1 RES     
    3646 OW          13.7820     5.4470   -68.0170 OW            1 RES     
    3647 HW1         14.0720     6.3700   -68.2690 HW1           1 RES     
    3648 HW2         12.9460     5.2130   -68.5140 HW2           1 RES     
@<TRIPOS>BOND
       1      352      353 1
       2      463      464 1
       3      346      347 1
       4     2872     2873 1
       5     3028     3030 1
       6     3190     3192 1
       7     2098     2100 1
       8     2029     2031 1
       9     1196     1198 1
      10     2272     2274 1
      11     3109     3111 1
      12     2935     2937 1
      13      336      335 1
      14     2392     2393 1
      15      505      506 1
      16     3037     3038 1
      17     3256     3258 1
      18     2095     2097 1
      19     2932     2934 1
      20     1101     1102 1
      21     3337     3339 1
      22     3418     3420 1
      23      848      849 1
      24     1346     1347 1
      25     1334     1335 1
      26      311      312 1
      27      359      360 1
      28     1010     1011 1
      29      467      468 1
      30      791      792 1
      31     1897     1899 1
      32     1034     1036 1
      33     1358     1360 1
      34      414      415 1
      35     2995     2997 1
      36      522      523 1
      37      770      771 1
      38      861      862 1
      39      161      162 1
      40     1132     1133 1
      41     1405     1408 1
      42     1081     1084 1
      43     1439     1440 1
      44     1007     1008 1
      45      210      209 1
      46     3145     3147 1
      47     2506     2507 1
      48      128      129 1
      49     1099     1100 1
      50     1435     1436 1
      51     1461     1462 1
      52      459      458 1
      53     3367     3369 1
      54       29       30 1
      55     1546     1525 1
      56      979      980 1
      57     1257     1258 1
      58      933      934 1
      59      790      791 1
      60     1627     1628 1
      61      811      814 1
      62      379      382 1
      63     2806     2807 1
      64     2563     2564 1
      65     3643     3644 1
      66      248      249 1
      67     3238     3239 1
      68      677      678 1
      69     2914     2915 1
      70     2659     2660 1
      71     3355     3356 1
      72     2977     2978 1
      73     2896     2897 1
      74      243      244 1
      75     2437     2438 1
      76     2194     2195 1
      77      450      451 1
      78     3436     3437 1
      79     2734     2735 1
      80     3274     3275 1
      81     2704     2706 1
      82     2053     2054 1
      83     2842     2844 1
      84     2071     2073 1
      85     1879     1881 1
      86       48       49 1
      87     1179     1180 1
      88     2941     2943 1
      89     1433     1434 1
      90     2806     2808 1
      91     2563     2565 1
      92     3643     3645 1
      93      832      833 1
      94     3238     3240 1
      95     1328     1329 1
      96      613      614 1
      97      832      831 1
      98      238      239 1
      99     1429     1430 1
     100     2299     2301 1
     101      952      931 1
     102     1088     1091 1
     103     2224     2226 1
     104     3061     3063 1
     105      602      604 1
     106     1250     1253 1
     107      151      152 1
     108     1122     1123 1
     109     1347     1348 1
     110     1011     1012 1
     111     1589     1590 1
     112     1583     1584 1
     113       75       76 1
     114      429      430 1
     115     1745     1744 1
     116      769      770 1
     117     3271     3273 1
     118     1243     1246 1
     119     1194     1195 1
     120      510      511 1
     121      906      907 1
     122      399      400 1
     123      589      590 1
     124     1891     1893 1
     125     2395     2396 1
     126      656      657 1
     127      332      333 1
     128     2566     2567 1
     129     1300     1299 1
     130     1464     1465 1
     131     2998     2999 1
     132      781      780 1
     133      174      175 1
     134      984      985 1
     135      656      658 1
     136     2647     2649 1
     137      332      334 1
     138     1275     1274 1
     139        4        5 1
     140     2995     2996 1
     141      762      763 1
     142      672      673 1
     143      328      329 1
     144      787      788 1
     145      775      776 1
     146      754      753 1
     147      673      674 1
     148     2800     2802 1
     149     2557     2559 1
     150     1412     1414 1
     151     3622     3624 1
     152     3298     3300 1
     153     2908     2910 1
     154     2650     2652 1
     155     3232     3234 1
     156     3487     3489 1
     157     3406     3408 1
     158     1115     1114 1
     159      440      443 1
     160      764      767 1
     161      298      299 1
     162     1828     1829 1
     163     1948     1949 1
     164     2347     2349 1
     165     2431     2432 1
     166     3007     3008 1
     167     2890     2891 1
     168     2728     2729 1
     169     1777     1778 1
     170     1795     1796 1
     171     2188     2189 1
     172     1116     1118 1
     173     3547     3548 1
     174     2971     2972 1
     175     1766     1765 1
     176     2338     2340 1
     177      993      994 1
     178     3040     3042 1
     179     2026     2028 1
     180     2203     2205 1
     181     2500     2502 1
     182      425      426 1
     183      416      417 1
     184     2122     2124 1
     185     3235     3237 1
     186     1888     1890 1
     187      539      540 1
     188      752      753 1
     189     1451     1452 1
     190      738      740 1
     191     1376     1377 1
     192     1373     1374 1
     193      260      259 1
     194       92       93 1
     195     3034     3036 1
     196      221      222 1
     197     1024     1025 1
     198      158      159 1
     199     1129     1130 1
     200     1177     1176 1
     201      624      625 1
     202      375      376 1
     203      801      802 1
     204      264      265 1
     205     2731     2733 1
     206     1963     1964 1
     207       36       37 1
     208     1843     1844 1
     209     1987     1988 1
     210     2890     2892 1
     211     3268     3270 1
     212     2728     2730 1
     213     2971     2973 1
     214     2431     2433 1
     215     2188     2190 1
     216     1813     1815 1
     217      903      904 1
     218     3349     3351 1
     219     3430     3432 1
     220      439      440 1
     221       90       92 1
     222     3493     3495 1
     223     3196     3197 1
     224     1083     1084 1
     225     1320     1321 1
     226      990      991 1
     227     2743     2745 1
     228      432      431 1
     229     1190     1192 1
     230      133      132 1
     231     3334     3336 1
     232     2620     2621 1
     233       72       71 1
     234     1261     1262 1
     235     1693     1694 1
     236      197      198 1
     237     1870     1872 1
     238     1822     1824 1
     239     1942     1944 1
     240     3226     3228 1
     241      660      661 1
     242     2953     2954 1
     243     2467     2469 1
     244     3412     3414 1
     245     2254     2256 1
     246      116      118 1
     247     3577     3579 1
     248     2794     2796 1
     249     2551     2553 1
     250     2656     2658 1
     251     1186     1187 1
     252      886      887 1
     253     1498     1499 1
     254       17       18 1
     255     1075     1076 1
     256     2824     2825 1
     257       36       38 1
     258      104      105 1
     259      383      382 1
     260      231      232 1
     261      339      340 1
     262      498      499 1
     263     3469     3470 1
     264      721      722 1
     265      733      734 1
     266     3478     3479 1
     267      116      119 1
     268     1984     1985 1
     269     3169     3171 1
     270     2119     2120 1
     271     2335     2336 1
     272     1810     1812 1
     273     1067     1068 1
     274       96       97 1
     275       27       28 1
     276     1397     1398 1
     277     1508     1509 1
     278     1535     1536 1
     279      890      891 1
     280     1292     1293 1
     281     1604     1605 1
     282     2647     2648 1
     283     3031     3033 1
     284     2815     2817 1
     285     2572     2574 1
     286     3112     3114 1
     287     3193     3195 1
     288     2275     2277 1
     289      747      748 1
     290      525      526 1
     291      321      322 1
     292     2032     2034 1
     293     1444     1445 1
     294     1189     1192 1
     295     1513     1516 1
     296      555      557 1
     297      816      815 1
     298      391      392 1
     299     1351     1354 1
     300     3331     3332 1
     301      816      817 1
     302      210      211 1
     303      636      637 1
     304     1562     1563 1
     305     2083     2084 1
     306     1304     1305 1
     307     3124     3125 1
     308     2542     2543 1
     309     3043     3044 1
     310     2341     2342 1
     311     3541     3542 1
     312     2206     2207 1
     313     2704     2705 1
     314     2044     2045 1
     315      224      225 1
     316     1062     1063 1
     317     2716     2717 1
     318     2878     2879 1
     319     2635     2636 1
     320     3553     3554 1
     321     2959     2960 1
     322     1792     1793 1
     323     3391     3392 1
     324     1310     1311 1
     325     3472     3473 1
     326     2413     2415 1
     327     2425     2427 1
     328     2857     2859 1
     329     2182     2184 1
     330     2776     2778 1
     331     3262     3264 1
     332     1750     1751 1
     333     3424     3426 1
     334     3607     3609 1
     335     3343     3345 1
     336      754      755 1
     337      532      533 1
     338      187      186 1
     339      418      419 1
     340     1654     1633 1
     341     1244     1246 1
     342     2080     2081 1
     343      121      120 1
     344      468      469 1
     345      371      372 1
     346      797      798 1
     347     1270     1271 1
     348      179      180 1
     349      875      876 1
     350     1978     1979 1
     351        7        8 1
     352      224      226 1
     353     1302     1303 1
     354      786      787 1
     355      354      355 1
     356     2827     2828 1
     357     2164     2165 1
     358     2488     2489 1
     359     1709     1708 1
     360      273      274 1
     361     3322     3323 1
     362     1497     1498 1
     363     3406     3407 1
     364      812      814 1
     365      380      382 1
     366     1900     1901 1
     367     1732     1734 1
     368     1756     1758 1
     369     1767     1765 1
     370      575      576 1
     371      683      684 1
     372      176      177 1
     373     1616     1617 1
     374     1921     1923 1
     375     1918     1919 1
     376      738      739 1
     377      662      663 1
     378      338      339 1
     379     1309     1310 1
     380       32       31 1
     381     2692     2693 1
     382     1546     1547 1
     383      433      436 1
     384     2146     2148 1
     385     3307     3309 1
     386      402      403 1
     387      633      634 1
     388      405      406 1
     389     1626     1627 1
     390     2344     2345 1
     391      190      191 1
     392      808      809 1
     393     1000     1001 1
     394      184      185 1
     395     1324     1325 1
     396      304      305 1
     397      547      548 1
     398      501      502 1
     399     2281     2283 1
     400      196      175 1
     401     3646     3647 1
     402      237      236 1
     403     3499     3501 1
     404     1780     1782 1
     405     1514     1516 1
     406     2248     2249 1
     407      250      251 1
     408      876      877 1
     409      327      328 1
     410     2860     2861 1
     411     2779     2780 1
     412      356      357 1
     413     2140     2141 1
     414     2491     2492 1
     415     2059     2060 1
     416     3139     3140 1
     417     2329     2330 1
     418     3328     3329 1
     419      872      875 1
     420     2221     2222 1
     421     3058     3059 1
     422     2167     2168 1
     423     1709     1710 1
     424      532      531 1
     425     2215     2216 1
     426     1849     1850 1
     427     1142     1143 1
     428     3550     3551 1
     429     2779     2781 1
     430     2860     2862 1
     431      835      836 1
     432     1649     1650 1
     433     1112     1113 1
     434     1125     1126 1
     435     1224     1226 1
     436     2710     2711 1
     437      710      712 1
     438     1326     1327 1
     439     1110     1111 1
     440     1098     1099 1
     441      127      128 1
     442     1434     1435 1
     443     1343     1344 1
     444      926      929 1
     445      139      140 1
     446      214      215 1
     447      634      635 1
     448     1662     1661 1
     449     1659     1660 1
     450     1233     1234 1
     451     1446     1447 1
     452     1598     1599 1
     453     3589     3591 1
     454     2077     2079 1
     455     1525     1526 1
     456      175      176 1
     457     1450     1451 1
     458     1672     1673 1
     459     1231     1232 1
     460     1342     1343 1
     461     1537     1536 1
     462      302      303 1
     463      503      504 1
     464      728      729 1
     465      290      291 1
     466      687      688 1
     467      369      370 1
     468      866      868 1
     469      715      716 1
     470     1587     1588 1
     471     1698     1699 1
     472       73       74 1
     473     1044     1045 1
     474      384      385 1
     475       79       80 1
     476     1050     1051 1
     477     2062     2063 1
     478     3277     3279 1
     479     2326     2327 1
     480     2719     2720 1
     481     2962     2963 1
     482      980      981 1
     483     2245     2246 1
     484      799      800 1
     485      586      587 1
     486     2011     2013 1
     487      367      368 1
     488     2881     2882 1
     489      187      188 1
     490      262      263 1
     491      520      521 1
     492      580      581 1
     493     1354     1355 1
     494     2929     2930 1
     495      197      196 1
     496      993      992 1
     497     1598     1597 1
     498     1154     1153 1
     499     2002     2003 1
     500      824      825 1
     501      576      577 1
     502      392      393 1
     503      177      178 1
     504     1753     1754 1
     505     1529     1530 1
     506     1384     1385 1
     507     3022     3023 1
     508     1632     1633 1
     509     1308     1309 1
     510      779      780 1
     511      242      243 1
     512      773      774 1
     513      572      573 1
     514       34       13 1
     515     2917     2919 1
     516     2404     2406 1
     517     3496     3497 1
     518     3223     3224 1
     519     1510     1511 1
     520      136      137 1
     521     3055     3056 1
     522     2218     2219 1
     523      784      785 1
     524      571      572 1
     525      235      236 1
     526     2173     2174 1
     527      910      911 1
     528     1648     1647 1
     529      822      823 1
     530     1605     1606 1
     531       28       29 1
     532     1284     1285 1
     533     3487     3488 1
     534     1290     1291 1
     535     3025     3026 1
     536      885      886 1
     537     1924     1925 1
     538       66       67 1
     539     2107     2108 1
     540     1600     1579 1
     541     3214     3215 1
     542     3376     3377 1
     543     3457     3458 1
     544     3241     3242 1
     545     3565     3566 1
     546     2917     2918 1
     547     1547     1548 1
     548     3484     3485 1
     549     3202     3204 1
     550     2257     2259 1
     551     3175     3177 1
     552     2365     2367 1
     553     2446     2448 1
     554     1209     1210 1
     555     3013     3015 1
     556     3094     3096 1
     557     1151     1152 1
     558     3445     3447 1
     559     1912     1914 1
     560     1338     1337 1
     561      562      563 1
     562     1175     1176 1
     563     1715     1716 1
     564      971      972 1
     565      628      607 1
     566     1049     1050 1
     567     1262     1263 1
     568       78       79 1
     569      871      872 1
     570     1332     1333 1
     571     1580     1581 1
     572     1339     1340 1
     573     1021     1022 1
     574     1999     2000 1
     575     1364     1363 1
     576      477      478 1
     577      585      586 1
     578     1867     1868 1
     579      143      144 1
     580      649      652 1
     581     3214     3216 1
     582     1557     1558 1
     583     3376     3378 1
     584      726      727 1
     585      837      838 1
     586     1518     1519 1
     587     3457     3459 1
     588     2458     2460 1
     589     2107     2109 1
     590     3565     3567 1
     591      688      689 1
     592     2065     2066 1
     593     1462     1463 1
     594      223      224 1
     595     2386     2388 1
     596     3115     3116 1
     597     3067     3069 1
     598     2662     2664 1
     599      805      804 1
     600      694      693 1
     601     3415     3417 1
     602     1828     1830 1
     603     1948     1950 1
     604     1483     1484 1
     605      682      683 1
     606     1473     1474 1
     607     1092     1093 1
     608      563      564 1
     609     1894     1896 1
     610     2818     2820 1
     611     2602     2604 1
     612     1771     1773 1
     613     2791     2793 1
     614     3523     3525 1
     615     1164     1163 1
     616     2521     2523 1
     617      101      102 1
     618     1723     1724 1
     619      961      962 1
     620     1174     1175 1
     621       62       64 1
     622      675      676 1
     623     1278     1279 1
     624     1072     1073 1
     625     1534     1535 1
     626     1285     1286 1
     627     1277     1278 1
     628     1385     1386 1
     629     2497     2499 1
     630     2137     2139 1
     631     1426     1425 1
     632      385      386 1
     633      882      881 1
     634      917      918 1
     635      966      967 1
     636     1825     1826 1
     637      165      166 1
     638     1681     1682 1
     639     1635     1636 1
     640     1864     1865 1
     641     2821     2823 1
     642     2629     2630 1
     643      860      861 1
     644      755      756 1
     645      323      324 1
     646     1386     1388 1
     647      524      525 1
     648     1271     1272 1
     649     1703     1704 1
     650     2404     2405 1
     651     2113     2115 1
     652     2950     2952 1
     653     3571     3573 1
     654     3490     3492 1
     655     3409     3411 1
     656     2653     2655 1
     657     2410     2412 1
     658      231      233 1
     659      339      341 1
     660     2854     2856 1
     661      919      922 1
     662      325      328 1
     663      757      760 1
     664     2143     2144 1
     665      828      829 1
     666      294      295 1
     667     1257     1259 1
     668      142      121 1
     669     1550     1551 1
     670      902      903 1
     671     1409     1410 1
     672      440      441 1
     673      764      765 1
     674      975      976 1
     675      630      631 1
     676      856      857 1
     677      319      320 1
     678     1622     1624 1
     679      742      743 1
     680     1032     1033 1
     681     2686     2688 1
     682     2938     2940 1
     683     1858     1859 1
     684      684      685 1
     685     1048     1049 1
     686      937      938 1
     687     1378     1379 1
     688       83       84 1
     689     1054     1055 1
     690     1591     1592 1
     691      440      442 1
     692     3484     3486 1
     693      764      766 1
     694     2839     2840 1
     695      336      337 1
     696     1349     1348 1
     697     2551     2552 1
     698     1203     1205 1
     699     1527     1529 1
     700     3136     3137 1
     701     2284     2285 1
     702      460      461 1
     703      247      248 1
     704      349      350 1
     705     2089     2091 1
     706     2920     2922 1
     707     3610     3612 1
     708     3583     3585 1
     709     3460     3462 1
     710     3217     3219 1
     711     1957     1959 1
     712     2665     2667 1
     713     1837     1839 1
     714     3244     3246 1
     715     3502     3504 1
     716     1624     1621 1
     717      838      839 1
     718     1109     1110 1
     719     1316     1317 1
     720     1313     1314 1
     721     1001     1002 1
     722      138      139 1
     723     2641     2642 1
     724      133      134 1
     725     2608     2610 1
     726     1317     1318 1
     727     2527     2529 1
     728      713      714 1
     729     3526     3528 1
     730     1644     1645 1
     731     1431     1432 1
     732     2986     2988 1
     733     3283     3285 1
     734     1340     1341 1
     735      281      282 1
     736     1330     1331 1
     737     1496     1497 1
     738      893      894 1
     739       24       25 1
     740     1607     1608 1
     741     1265     1266 1
     742     1574     1576 1
     743     1466     1468 1
     744     1993     1995 1
     745      252      254 1
     746      576      578 1
     747     3199     3201 1
     748      257      258 1
     749     2461     2463 1
     750     1981     1983 1
     751     1927     1928 1
     752     1807     1808 1
     753     1331     1332 1
     754     1735     1736 1
     755      180      181 1
     756     2476     2478 1
     757     3532     3533 1
     758      923      924 1
     759     1361     1362 1
     760     1469     1470 1
     761      201      202 1
     762     1729     1731 1
     763      475      476 1
     764      193      194 1
     765      134      135 1
     766     1426     1427 1
     767     1003     1004 1
     768     1318     1319 1
     769     1105     1106 1
     770     1639     1640 1
     771     1213     1214 1
     772     1216     1217 1
     773     1651     1652 1
     774     1569     1570 1
     775     1245     1246 1
     776     3631     3633 1
     777     1650     1651 1
     778     1804     1806 1
     779     1462     1459 1
     780      974      976 1
     781     3097     3099 1
     782     3145     3146 1
     783     1900     1902 1
     784     1156     1157 1
     785     1365     1366 1
     786     1372     1373 1
     787      126      127 1
     788     1492     1493 1
     789      543      544 1
     790       61       62 1
     791     2377     2379 1
     792      552      553 1
     793     1254     1255 1
     794     1578     1579 1
     795      977      976 1
     796     2680     2681 1
     797     3517     3518 1
     798     2761     2762 1
     799     3004     3005 1
     800     2086     2087 1
     801     2842     2843 1
     802     3085     3086 1
     803     3598     3599 1
     804     2044     2046 1
     805     2584     2586 1
     806       97       98 1
     807     1068     1069 1
     808     1250     1251 1
     809     3559     3560 1
     810     2560     2561 1
     811     3640     3641 1
     812     3289     3290 1
     813     3397     3398 1
     814      682      661 1
     815      170      173 1
     816     2398     2399 1
     817     2803     2804 1
     818     3235     3236 1
     819      409      408 1
     820      358      337 1
     821      298      297 1
     822     1060     1039 1
     823     1304     1307 1
     824     2065     2067 1
     825     1130     1131 1
     826     1358     1361 1
     827      164      166 1
     828     1133     1134 1
     829     1602     1604 1
     830      159      160 1
     831      643      644 1
     832      640      641 1
     833     1034     1037 1
     834     1671     1672 1
     835     1449     1450 1
     836     1178     1179 1
     837     1023     1024 1
     838     1665     1666 1
     839      157      158 1
     840     1341     1342 1
     841     1128     1129 1
     842     1452     1453 1
     843     1236     1237 1
     844      360      362 1
     845     1786     1787 1
     846      985      986 1
     847      490      491 1
     848      695      696 1
     849     1471     1472 1
     850      366      367 1
     851      217      220 1
     852     1704     1705 1
     853      942      943 1
     854     1260     1261 1
     855     2224     2225 1
     856      912      913 1
     857       43       44 1
     858     1479     1480 1
     859     3061     3062 1
     860     1196     1197 1
     861     3190     3191 1
     862     3028     3029 1
     863     2029     2030 1
     864     3109     3110 1
     865     2098     2099 1
     866     2935     2936 1
     867     2272     2273 1
     868     1710     1711 1
     869     2797     2798 1
     870     2905     2906 1
     871     2554     2555 1
     872     3229     3230 1
     873     3634     3635 1
     874     3178     3179 1
     875     3466     3468 1
     876     3448     3449 1
     877      879      880 1
     878     2764     2765 1
     879     1631     1632 1
     880      200      201 1
     881      635      636 1
     882     2605     2607 1
     883     1487     1486 1
     884     1238     1237 1
     885      122      123 1
     886     3070     3071 1
     887     3526     3527 1
     888     1933     1934 1
     889      650      652 1
     890      758      760 1
     891      115      116 1
     892       69       70 1
     893     3313     3315 1
     894     2152     2154 1
     895     3433     3435 1
     896     2773     2775 1
     897     2434     2436 1
     898     2974     2976 1
     899     2893     2895 1
     900     3151     3153 1
     901     2191     2193 1
     902     1909     1911 1
     903       22       21 1
     904      400      401 1
     905      790      769 1
     906     2251     2252 1
     907     2875     2876 1
     908     2512     2513 1
     909     3142     3143 1
     910     2713     2714 1
     911     3064     3065 1
     912     2863     2864 1
     913     2821     2822 1
     914     2170     2171 1
     915     2494     2495 1
     916     2473     2475 1
     917     3148     3150 1
     918     1954     1956 1
     919     1834     1836 1
     920     3310     3312 1
     921     3613     3615 1
     922     1241     1242 1
     923      749      750 1
     924     2311     2313 1
     925     2149     2151 1
     926     1960     1962 1
     927     3610     3611 1
     928      419      420 1
     929     1840     1842 1
     930     1478     1479 1
     931     1259     1260 1
     932     1691     1692 1
     933     3352     3353 1
     934     1656     1657 1
     935     2377     2378 1
     936      590      591 1
     937      329      330 1
     938      426      427 1
     939     1336     1337 1
     940        6        5 1
     941     1139     1140 1
     942      633      632 1
     943     1891     1892 1
     944      541      544 1
     945      516      517 1
     946     2512     2514 1
     947       46       47 1
     948     2593     2595 1
     949     2782     2784 1
     950     1554     1555 1
     951     2350     2352 1
     952     2863     2865 1
     953     1086     1087 1
     954      364      365 1
     955      121      122 1
     956      700      701 1
     957      697      698 1
     958      922      923 1
     959     1246     1247 1
     960       15       17 1
     961     1406     1408 1
     962     1438     1417 1
     963     1680     1681 1
     964        2        4 1
     965      602      603 1
     966     1924     1926 1
     967     1273     1274 1
     968     2914     2916 1
     969     2428     2429 1
     970     2185     2186 1
     971     3265     3266 1
     972      782      783 1
     973     1846     1848 1
     974     2104     2105 1
     975      883      884 1
     976     3346     3347 1
     977     2941     2942 1
     978     3427     3428 1
     979     3493     3494 1
     980     3304     3306 1
     981     2575     2577 1
     982     3388     3390 1
     983     3628     3630 1
     984     2902     2904 1
     985     2305     2307 1
     986     1183     1184 1
     987     1615     1616 1
     988     1726     1727 1
     989      895      896 1
     990     1390     1391 1
     991       20       21 1
     992     1501     1502 1
     993       62       65 1
     994       59       60 1
     995     2623     2625 1
     996     2503     2505 1
     997     3334     3335 1
     998      581      582 1
     999     3163     3165 1
    1000     1999     2001 1
    1001     1500     1501 1
    1002      963      964 1
    1003     1713     1714 1
    1004     3226     3227 1
    1005     1532     1533 1
    1006     2185     2187 1
    1007     2104     2106 1
    1008     1220     1221 1
    1009     3265     3267 1
    1010      301      302 1
    1011     1205     1206 1
    1012     2428     2430 1
    1013      727      728 1
    1014     1424     1425 1
    1015     1033     1034 1
    1016      987      988 1
    1017     1888     1889 1
    1018      980      983 1
    1019     1628     1631 1
    1020      150      151 1
    1021     1121     1122 1
    1022     1457     1458 1
    1023     1070     1071 1
    1024     1718     1719 1
    1025     1394     1395 1
    1026     1619     1620 1
    1027     1295     1296 1
    1028     1541     1542 1
    1029       99      100 1
    1030     1283     1284 1
    1031      602      605 1
    1032     2869     2871 1
    1033     2518     2520 1
    1034     2356     2358 1
    1035     2599     2601 1
    1036     2788     2790 1
    1037     3421     3422 1
    1038      617      618 1
    1039      842      843 1
    1040      506      507 1
    1041      483      484 1
    1042     1079     1080 1
    1043     2323     2325 1
    1044     2848     2850 1
    1045     3169     3170 1
    1046      213      214 1
    1047     1551     1552 1
    1048      911      912 1
    1049     1412     1413 1
    1050     3622     3623 1
    1051     3298     3299 1
    1052     2557     2558 1
    1053     2800     2801 1
    1054     1517     1518 1
    1055     3232     3233 1
    1056     1556     1557 1
    1057     2650     2651 1
    1058     2908     2909 1
    1059     3010     3012 1
    1060     2533     2535 1
    1061     2830     2832 1
    1062     3046     3048 1
    1063     2614     2616 1
    1064     2695     2697 1
    1065     2587     2589 1
    1066     3127     3129 1
    1067     3532     3534 1
    1068     2992     2994 1
    1069     2047     2049 1
    1070     2506     2508 1
    1071      526      527 1
    1072      850      851 1
    1073      751      752 1
    1074        8       10 1
    1075      538      539 1
    1076      313      314 1
    1077     1638     1637 1
    1078     1437     1436 1
    1079     2524     2526 1
    1080     2026     2027 1
    1081      269      270 1
    1082      803      804 1
    1083      578      579 1
    1084      254      255 1
    1085      194      195 1
    1086      794      795 1
    1087      377      378 1
    1088     1588     1589 1
    1089      689      690 1
    1090      626      627 1
    1091       74       75 1
    1092     1045     1046 1
    1093     3403     3405 1
    1094     3001     3002 1
    1095      393      395 1
    1096      564      565 1
    1097      240      241 1
    1098      342      343 1
    1099      666      667 1
    1100     1095     1097 1
    1101      777      778 1
    1102     2989     2990 1
    1103      769      768 1
    1104      561      562 1
    1105        8        9 1
    1106     2179     2181 1
    1107     2611     2613 1
    1108     2515     2517 1
    1109     2353     2355 1
    1110     2596     2598 1
    1111     2530     2532 1
    1112     3529     3531 1
    1113     1861     1863 1
    1114     2422     2424 1
    1115     2866     2868 1
    1116      705      706 1
    1117      381      382 1
    1118      548      551 1
    1119     3637     3638 1
    1120     2407     2408 1
    1121     3592     3593 1
    1122      409      410 1
    1123     2212     2214 1
    1124      227      228 1
    1125     1440     1442 1
    1126     3118     3119 1
    1127     1906     1908 1
    1128      497      498 1
    1129      938      939 1
    1130     2017     2019 1
    1131     1873     1875 1
    1132     1487     1488 1
    1133      842      841 1
    1134      230      231 1
    1135      169      170 1
    1136      468      470 1
    1137     1700     1701 1
    1138     1870     1871 1
    1139     1942     1943 1
    1140     1822     1823 1
    1141     1028     1030 1
    1142      417      418 1
    1143     2023     2024 1
    1144       89       90 1
    1145     1579     1580 1
    1146     2158     2160 1
    1147     1655     1656 1
    1148      900      901 1
    1149     1548     1549 1
    1150     1135     1138 1
    1151     1327     1328 1
    1152     1210     1211 1
    1153     1432     1433 1
    1154     1321     1322 1
    1155      125      126 1
    1156     1102     1103 1
    1157     3364     3366 1
    1158      717      718 1
    1159     2947     2948 1
    1160      681      680 1
    1161     1813     1814 1
    1162      983      984 1
    1163     1523     1524 1
    1164     3580     3582 1
    1165     1104     1105 1
    1166     2068     2070 1
    1167     2146     2147 1
    1168      670      669 1
    1169     3307     3308 1
    1170     3586     3588 1
    1171     1696     1697 1
    1172     1600     1601 1
    1173     2590     2591 1
    1174     1416     1417 1
    1175     3130     3131 1
    1176      671      672 1
    1177     2212     2213 1
    1178     2347     2348 1
    1179     3049     3050 1
    1180     2389     2391 1
    1181     2131     2132 1
    1182      759      760 1
    1183     2281     2282 1
    1184     2005     2006 1
    1185      245      246 1
    1186     3112     3113 1
    1187     3193     3194 1
    1188     2815     2816 1
    1189     2572     2573 1
    1190     2275     2276 1
    1191     3031     3032 1
    1192     2032     2033 1
    1193      287      285 1
    1194     2323     2324 1
    1195       41       42 1
    1196      113      114 1
    1197     1552     1553 1
    1198     1927     1929 1
    1199      111      112 1
    1200      272      274 1
    1201      488      490 1
    1202      926      927 1
    1203     1945     1946 1
    1204     3130     3132 1
    1205     2590     2592 1
    1206     2509     2511 1
    1207      292      293 1
    1208     1106     1107 1
    1209     2425     2426 1
    1210     2857     2858 1
    1211     2776     2777 1
    1212     1643     1644 1
    1213     2182     2183 1
    1214      844      823 1
    1215     3424     3425 1
    1216     3262     3263 1
    1217     3343     3344 1
    1218      135      136 1
    1219     3064     3066 1
    1220     1762     1763 1
    1221     1738     1739 1
    1222     2578     2579 1
    1223      999     1000 1
    1224      278      280 1
    1225      386      388 1
    1226      954      956 1
    1227      211      212 1
    1228      637      638 1
    1229     1455     1456 1
    1230     1344     1345 1
    1231     1662     1663 1
    1232     1119     1120 1
    1233      154      155 1
    1234      148      149 1
    1235     1166     1167 1
    1236     1055     1056 1
    1237     1043     1044 1
    1238     1379     1380 1
    1239       84       85 1
    1240     2035     2037 1
    1241     1592     1593 1
    1242     3403     3404 1
    1243       72       73 1
    1244     1810     1811 1
    1245      855      856 1
    1246      318      319 1
    1247     1641     1642 1
    1248      973      976 1
    1249      299      300 1
    1250      518      519 1
    1251     1687     1688 1
    1252     1679     1680 1
    1253     1247     1248 1
    1254      499      500 1
    1255     1482     1483 1
    1256     1371     1372 1
    1257     1158     1159 1
    1258     1269     1270 1
    1259       40       41 1
    1260      300      301 1
    1261     1817     1816 1
    1262     2128     2129 1
    1263      493      492 1
    1264     1738     1740 1
    1265     1819     1821 1
    1266     1939     1941 1
    1267      694      695 1
    1268     1533     1534 1
    1269      805      806 1
    1270      268      269 1
    1271     1762     1764 1
    1272     2569     2570 1
    1273     2851     2852 1
    1274     1094     1095 1
    1275     2770     2771 1
    1276     1768     1769 1
    1277     1407     1408 1
    1278      360      361 1
    1279      608      609 1
    1280     2236     2237 1
    1281      284      285 1
    1282     1168     1169 1
    1283      557      558 1
    1284     3082     3083 1
    1285      330      331 1
    1286     1628     1629 1
    1287      931      930 1
    1288     2482     2483 1
    1289      542      544 1
    1290     1798     1799 1
    1291      241      242 1
    1292      778      779 1
    1293      907      908 1
    1294     1558     1559 1
    1295       50       51 1
    1296     1188     1187 1
    1297     1725     1726 1
    1298       19       20 1
    1299     1614     1615 1
    1300      888      889 1
    1301     3346     3348 1
    1302     3106     3107 1
    1303      616      617 1
    1304     1421     1422 1
    1305      412      391 1
    1306      289      290 1
    1307     1780     1781 1
    1308      829      830 1
    1309     3442     3443 1
    1310     3601     3602 1
    1311     2362     2363 1
    1312     3295     3296 1
    1313     2092     2093 1
    1314     3034     3035 1
    1315     2683     2684 1
    1316     2809     2810 1
    1317     2035     2036 1
    1318     2443     2444 1
    1319     1930     1932 1
    1320     1428     1429 1
    1321     3478     3480 1
    1322     1215     1216 1
    1323     1232     1233 1
    1324     3439     3441 1
    1325     1936     1938 1
    1326     1654     1655 1
    1327     1721     1722 1
    1328      956      957 1
    1329     1172     1173 1
    1330     1544     1545 1
    1331     1181     1182 1
    1332      959      960 1
    1333     1706     1707 1
    1334     1370     1371 1
    1335      950      951 1
    1336     1909     1910 1
    1337     1008     1009 1
    1338     1550     1548 1
    1339      932      933 1
    1340     1256     1257 1
    1341     1249     1248 1
    1342     1417     1418 1
    1343      545      546 1
    1344      852      853 1
    1345     1228     1229 1
    1346       14       15 1
    1347      579      580 1
    1348      255      256 1
    1349      795      796 1
    1350      807      808 1
    1351      591      592 1
    1352     1218     1219 1
    1353      258      259 1
    1354     2011     2012 1
    1355     2227     2229 1
    1356      929      930 1
    1357     1563     1564 1
    1358     2809     2811 1
    1359     3295     3297 1
    1360     2566     2568 1
    1361     3619     3621 1
    1362     3646     3648 1
    1363     1789     1791 1
    1364     1473     1475 1
    1365     2296     2298 1
    1366      373      374 1
    1367      412      413 1
    1368     2926     2928 1
    1369     2740     2742 1
    1370      215      216 1
    1371      203      204 1
    1372     3451     3452 1
    1373     1006      985 1
    1374     1330     1309 1
    1375     1140     1141 1
    1376     3253     3255 1
    1377     2899     2900 1
    1378     1376     1375 1
    1379      359      358 1
    1380      710      711 1
    1381     1303     1304 1
    1382     1411     1412 1
    1383      466      467 1
    1384      219      220 1
    1385     1990     1992 1
    1386     2632     2634 1
    1387     2386     2387 1
    1388     1795     1797 1
    1389     3118     3120 1
    1390     3547     3549 1
    1391     2548     2550 1
    1392     3088     3090 1
    1393     2578     2580 1
    1394     1294     1295 1
    1395     1069     1070 1
    1396       32       33 1
    1397     1720     1721 1
    1398     1543     1544 1
    1399     1402     1403 1
    1400     2662     2663 1
    1401       98       99 1
    1402     1291     1292 1
    1403      958      959 1
    1404     1493     1494 1
    1405     1169     1170 1
    1406      760      761 1
    1407     2845     2847 1
    1408     3415     3416 1
    1409      698      699 1
    1410     2164     2166 1
    1411     2488     2490 1
    1412      709      710 1
    1413      277      278 1
    1414     1185     1186 1
    1415      960      961 1
    1416     1173     1174 1
    1417     1509     1510 1
    1418     1374     1375 1
    1419     2818     2819 1
    1420     2911     2912 1
    1421      925      926 1
    1422     1168     1147 1
    1423      659      660 1
    1424     1912     1913 1
    1425     1196     1199 1
    1426     2956     2958 1
    1427     2332     2334 1
    1428     2497     2498 1
    1429     3268     3269 1
    1430      533      534 1
    1431      746      747 1
    1432       56       58 1
    1433     1494     1496 1
    1434     1278     1280 1
    1435      857      858 1
    1436     1170     1172 1
    1437      308      309 1
    1438     1300     1298 1
    1439      731      730 1
    1440     2233     2234 1
    1441      710      713 1
    1442     3544     3546 1
    1443     2545     2547 1
    1444     2707     2709 1
    1445     3301     3303 1
    1446      920      922 1
    1447     2302     2304 1
    1448     1669     1670 1
    1449     2419     2421 1
    1450     2626     2628 1
    1451     3625     3627 1
    1452     3340     3341 1
    1453      892      891 1
    1454      719      720 1
    1455      620      621 1
    1456      931      932 1
    1457     1255     1256 1
    1458      833      834 1
    1459      407      408 1
    1460      474      475 1
    1461      296      297 1
    1462     1777     1779 1
    1463     1567     1570 1
    1464      608      607 1
    1465     2983     2984 1
    1466      288      289 1
    1467      612      613 1
    1468      914      915 1
    1469     2692     2694 1
    1470     1565     1566 1
    1471     2209     2210 1
    1472      736      737 1
    1473     2278     2279 1
    1474     2263     2265 1
    1475     2101     2103 1
    1476     3181     3183 1
    1477     3100     3102 1
    1478     3208     3210 1
    1479     3505     3507 1
    1480     2371     2373 1
    1481     2668     2670 1
    1482     2452     2454 1
    1483     3100     3101 1
    1484     2344     2346 1
    1485      521      522 1
    1486      529      530 1
    1487     2509     2510 1
    1488     2767     2768 1
    1489      800      801 1
    1490      482      483 1
    1491      374      375 1
    1492      260      261 1
    1493      263      264 1
    1494      266      267 1
    1495     1480     1481 1
    1496      943      944 1
    1497      485      486 1
    1498      368      369 1
    1499     1200     1201 1
    1500      341      342 1
    1501      560      561 1
    1502     2656     2657 1
    1503     1476     1475 1
    1504     1525     1524 1
    1505       58       55 1
    1506     3325     3326 1
    1507     1311     1313 1
    1508     1419     1421 1
    1509     1774     1775 1
    1510      559      560 1
    1511      670      671 1
    1512      244      245 1
    1513     2686     2687 1
    1514     2569     2571 1
    1515     3556     3558 1
    1516     1885     1887 1
    1517     3394     3396 1
    1518     2638     2640 1
    1519     3475     3477 1
    1520     2812     2814 1
    1521     1520     1522 1
    1522     2395     2397 1
    1523       11       12 1
    1524      724      725 1
    1525     1640     1641 1
    1526     1322     1323 1
    1527      304      283 1
    1528     1430     1431 1
    1529      998      999 1
    1530      991      992 1
    1531     2290     2291 1
    1532     1319     1320 1
    1533       58       59 1
    1534     1801     1802 1
    1535     1656     1658 1
    1536     2089     2090 1
    1537     1107     1108 1
    1538     2716     2718 1
    1539     2959     2961 1
    1540     3472     3474 1
    1541     2878     2880 1
    1542     2635     2637 1
    1543     1422     1423 1
    1544     3553     3555 1
    1545     1792     1794 1
    1546     3391     3393 1
    1547     1367     1368 1
    1548     1046     1047 1
    1549      935      936 1
    1550     2773     2774 1
    1551     3601     3603 1
    1552      446      447 1
    1553     2833     2835 1
    1554     1894     1895 1
    1555     1676     1678 1
    1556       45       44 1
    1557     1612     1611 1
    1558     1399     1398 1
    1559     1288     1287 1
    1560       62       63 1
    1561     1039     1040 1
    1562     2422     2423 1
    1563     1759     1760 1
    1564     2581     2583 1
    1565      823      824 1
    1566      204      205 1
    1567     1149     1151 1
    1568      181      182 1
    1569     1648     1649 1
    1570     1108     1109 1
    1571     1219     1220 1
    1572     1423     1424 1
    1573      140      141 1
    1574      137      138 1
    1575     1531     1532 1
    1576     1111     1112 1
    1577     1570     1571 1
    1578     3574     3576 1
    1579     3199     3200 1
    1580     3520     3521 1
    1581     1747     1749 1
    1582     2464     2466 1
    1583     1572     1573 1
    1584      247      246 1
    1585     1477     1478 1
    1586      949      950 1
    1587     1165     1166 1
    1588     1162     1163 1
    1589     3454     3455 1
    1590     3373     3374 1
    1591     3211     3212 1
    1592     2266     2267 1
    1593       90       91 1
    1594     2374     2375 1
    1595     2455     2456 1
    1596      461      462 1
    1597     1038     1039 1
    1598     3184     3185 1
    1599     3631     3632 1
    1600     1698     1697 1
    1601     3058     3060 1
    1602     2113     2114 1
    1603     2950     2951 1
    1604     3490     3491 1
    1605      462      463 1
    1606     1783     1785 1
    1607      237      238 1
    1608     2653     2654 1
    1609     3571     3572 1
    1610     3409     3410 1
    1611      456      457 1
    1612     1601     1602 1
    1613     1747     1748 1
    1614     1555     1556 1
    1615       47       48 1
    1616       53       54 1
    1617     3055     3057 1
    1618     2023     2025 1
    1619     2218     2220 1
    1620      390      391 1
    1621      628      629 1
    1622     1401     1402 1
    1623     1074     1075 1
    1624      103      104 1
    1625     1897     1898 1
    1626     1034     1035 1
    1627     1358     1359 1
    1628     3211     3213 1
    1629     3373     3375 1
    1630     3454     3456 1
    1631     2266     2268 1
    1632     2374     2376 1
    1633     1646     1647 1
    1634     2455     2457 1
    1635     3184     3186 1
    1636     3103     3105 1
    1637     3022     3024 1
    1638     1412     1415 1
    1639     1574     1577 1
    1640     1466     1469 1
    1641     2287     2288 1
    1642      202      203 1
    1643     1131     1132 1
    1644     1443     1444 1
    1645     1335     1336 1
    1646      160      161 1
    1647     1017     1018 1
    1648      509      508 1
    1649      177      179 1
    1650     3508     3510 1
    1651     1208     1209 1
    1652     3535     3537 1
    1653      806      807 1
    1654     1633     1634 1
    1655     1568     1570 1
    1656     1240     1241 1
    1657      528      529 1
    1658      198      200 1
    1659      690      691 1
    1660      696      697 1
    1661     3121     3123 1
    1662      948      949 1
    1663      936      937 1
    1664     1047     1048 1
    1665     1161     1162 1
    1666     1590     1591 1
    1667     1272     1273 1
    1668     1377     1378 1
    1669       82       83 1
    1670     1053     1054 1
    1671     3460     3461 1
    1672     3379     3380 1
    1673     3217     3218 1
    1674     1957     1958 1
    1675     2665     2666 1
    1676      625      626 1
    1677      376      377 1
    1678     2746     2747 1
    1679     1837     1838 1
    1680     3583     3584 1
    1681      484      485 1
    1682      802      803 1
    1683      548      549 1
    1684     3619     3620 1
    1685     2689     2691 1
    1686     2359     2361 1
    1687      548      550 1
    1688       49       50 1
    1689     2833     2834 1
    1690      546      547 1
    1691     2056     2057 1
    1692      355      356 1
    1693      781      782 1
    1694      568      569 1
    1695     2605     2606 1
    1696     2110     2112 1
    1697     2677     2679 1
    1698     1088     1090 1
    1699     3514     3516 1
    1700     2368     2370 1
    1701     2260     2262 1
    1702     3595     3597 1
    1703     2758     2760 1
    1704     3016     3018 1
    1705     2449     2451 1
    1706       34       35 1
    1707     1701     1702 1
    1708     3427     3429 1
    1709     3187     3188 1
    1710      406      407 1
    1711     2401     2402 1
    1712     1972     1973 1
    1713     1804     1805 1
    1714     2131     2133 1
    1715     3538     3539 1
    1716     3358     3359 1
    1717     2539     2540 1
    1718     2701     2702 1
    1719     3277     3278 1
    1720     2440     2441 1
    1721     2197     2198 1
    1722     2980     2981 1
    1723     2308     2309 1
    1724     3079     3080 1
    1725     3286     3287 1
    1726      846      848 1
    1727     1160     1161 1
    1728      870      871 1
    1729     1882     1883 1
    1730     1040     1041 1
    1731     1224     1225 1
    1732     1116     1117 1
    1733      653      654 1
    1734     1723     1722 1
    1735      588      589 1
    1736      189      190 1
    1737     2539     2541 1
    1738     3538     3540 1
    1739     3079     3081 1
    1740     2620     2622 1
    1741     2998     3000 1
    1742     2701     2703 1
    1743      978      979 1
    1744     3073     3074 1
    1745     2836     2838 1
    1746     2080     2082 1
    1747      763      764 1
    1748      275      276 1
    1749      570      569 1
    1750      206      207 1
    1751      559      558 1
    1752     1585     1586 1
    1753       77       78 1
    1754     3508     3509 1
    1755     2617     2618 1
    1756     2536     2537 1
    1757     2077     2078 1
    1758     3292     3293 1
    1759     3616     3617 1
    1760     2752     2753 1
    1761     2698     2699 1
    1762     1146     1147 1
    1763      825      827 1
    1764     2014     2016 1
    1765     1966     1968 1
    1766      449      450 1
    1767     3535     3536 1
    1768      892      893 1
    1769     1606     1607 1
    1770     1717     1718 1
    1771     1540     1541 1
    1772     1180     1181 1
    1773     1393     1394 1
    1774     2839     2841 1
    1775        6        7 1
    1776     1408     1409 1
    1777       88       67 1
    1778     1003     1002 1
    1779      663      664 1
    1780      601      602 1
    1781      966      965 1
    1782     1512     1511 1
    1783     1488     1489 1
    1784     3616     3618 1
    1785     1004     1005 1
    1786     1211     1212 1
    1787     2617     2619 1
    1788     1427     1428 1
    1789     3292     3294 1
    1790      511      512 1
    1791     2752     2754 1
    1792     2698     2700 1
    1793     2536     2538 1
    1794     1203     1204 1
    1795     1527     1528 1
    1796     1573     1574 1
    1797     1249     1250 1
    1798       38       39 1
    1799     1960     1961 1
    1800     1840     1841 1
    1801     2641     2643 1
    1802     1667     1668 1
    1803     1454     1455 1
    1804     1664     1665 1
    1805     1118     1119 1
    1806      147      148 1
    1807     3244     3245 1
    1808     2380     2381 1
    1809     2920     2921 1
    1810      102      103 1
    1811     1391     1392 1
    1812     1073     1074 1
    1813     1727     1728 1
    1814     1280     1281 1
    1815     1505     1506 1
    1816     1484     1485 1
    1817     1694     1695 1
    1818     3463     3465 1
    1819     3382     3384 1
    1820     3247     3249 1
    1821     2923     2925 1
    1822     3220     3222 1
    1823     2383     2385 1
    1824      849      850 1
    1825      312      313 1
    1826     2176     2178 1
    1827      534      535 1
    1828       95       94 1
    1829     3259     3260 1
    1830      287      288 1
    1831      836      837 1
    1832      725      726 1
    1833     1147     1148 1
    1834      611      612 1
    1835     1066     1065 1
    1836     1193     1194 1
    1837     2434     2435 1
    1838     3433     3434 1
    1839     2314     2315 1
    1840     3313     3314 1
    1841     2152     2153 1
    1842      905      906 1
    1843     2974     2975 1
    1844     2731     2732 1
    1845     2191     2192 1
    1846     3151     3152 1
    1847     1386     1387 1
    1848     2095     2096 1
    1849      986      987 1
    1850     2932     2933 1
    1851     3337     3338 1
    1852     3418     3419 1
    1853     2176     2177 1
    1854     2116     2118 1
    1855     3091     3093 1
    1856     3256     3257 1
    1857     1753     1755 1
    1858     2965     2967 1
    1859     2884     2886 1
    1860     3316     3318 1
    1861     2722     2724 1
    1862     3154     3156 1
    1863     2479     2481 1
    1864     3019     3020 1
    1865     2317     2319 1
    1866     2155     2157 1
    1867     2074     2076 1
    1868      853      854 1
    1869      745      746 1
    1870      430      431 1
    1871     1326     1325 1
    1872     1077     1078 1
    1873     2416     2418 1
    1874     1741     1742 1
    1875      900      902 1
    1876     2848     2849 1
    1877      537      538 1
    1878     1954     1955 1
    1879      476      477 1
    1880      365      366 1
    1881      584      585 1
    1882      701      702 1
    1883     1834     1835 1
    1884      185      186 1
    1885      809      810 1
    1886     1092     1091 1
    1887      350      351 1
    1888     2125     2126 1
    1889      868      865 1
    1890     3010     3011 1
    1891     1492     1471 1
    1892      351      352 1
    1893      774      775 1
    1894      567      568 1
    1895      652      653 1
    1896     2524     2525 1
    1897      953      952 1
    1898     1315     1314 1
    1899     1741     1743 1
    1900      597      598 1
    1901     3568     3569 1
    1902        1        4 1
    1903      794      792 1
    1904     1996     1997 1
    1905     2050     2052 1
    1906      551      552 1
    1907      389      390 1
    1908      251      252 1
    1909     1026     1025 1
    1910     1227     1226 1
    1911     1222     1223 1
    1912     1006     1007 1
    1913     1403     1404 1
    1914     1849     1851 1
    1915     1142     1144 1
    1916      620      619 1
    1917      398      397 1
    1918     3361     3363 1
    1919     1846     1847 1
    1920      846      847 1
    1921      750      751 1
    1922     1951     1952 1
    1923     1975     1976 1
    1924       80       81 1
    1925     1831     1832 1
    1926      173      174 1
    1927     1253     1254 1
    1928     1577     1578 1
    1929     2470     2472 1
    1930      615      616 1
    1931     1689     1691 1
    1932     1365     1367 1
    1933      265      266 1
    1934      796      797 1
    1935      994      995 1
    1936     1207     1208 1
    1937     1642     1643 1
    1938     1137     1138 1
    1939      825      826 1
    1940      393      394 1
    1941      383      384 1
    1942      146      144 1
    1943     3205     3207 1
    1944     3178     3180 1
    1945     3448     3450 1
    1946     1380     1381 1
    1947     1699     1700 1
    1948      574      575 1
    1949     1381     1382 1
    1950     3319     3320 1
    1951     3157     3158 1
    1952     2320     2321 1
    1953      674      675 1
    1954      123      124 1
    1955     2944     2946 1
    1956     3364     3365 1
    1957     2158     2159 1
    1958     2239     2240 1
    1959      717      719 1
    1960     2518     2519 1
    1961     2869     2870 1
    1962     2599     2600 1
    1963      459      460 1
    1964      783      784 1
    1965     1418     1419 1
    1966     1170     1171 1
    1967     2788     2789 1
    1968     2068     2069 1
    1969     2356     2357 1
    1970      867      868 1
    1971     2200     2202 1
    1972     3070     3072 1
    1973     1230     1231 1
    1974     1921     1922 1
    1975     2389     2390 1
    1976     3319     3321 1
    1977     3157     3159 1
    1978      520      499 1
    1979     2320     2322 1
    1980     2482     2484 1
    1981     2695     2696 1
    1982     2587     2588 1
    1983     3127     3128 1
    1984     2533     2534 1
    1985     3046     3047 1
    1986     2614     2615 1
    1987     2992     2993 1
    1988     2074     2075 1
    1989     2047     2048 1
    1990     2830     2831 1
    1991     2548     2549 1
    1992      818      820 1
    1993      494      496 1
    1994     1019     1020 1
    1995     1682     1685 1
    1996      646      647 1
    1997     1239     1240 1
    1998     1227     1228 1
    1999     1014     1015 1
    2000     1625     1626 1
    2001      684      686 1
    2002     1093     1094 1
    2003      509      510 1
    2004      398      399 1
    2005      722      723 1
    2006      410      411 1
    2007      898      877 1
    2008      734      735 1
    2009     3352     3354 1
    2010     1593     1594 1
    2011     1263     1264 1
    2012      945      946 1
    2013       85       86 1
    2014       52       53 1
    2015      909      910 1
    2016     1485     1486 1
    2017     1056     1057 1
    2018     1560     1561 1
    2019     2530     2531 1
    2020     2179     2180 1
    2021     3529     3530 1
    2022     1861     1862 1
    2023     2515     2516 1
    2024     1915     1917 1
    2025     2611     2612 1
    2026     2353     2354 1
    2027     2596     2597 1
    2028     2785     2786 1
    2029     3040     3041 1
    2030     2041     2042 1
    2031     2203     2204 1
    2032     2338     2339 1
    2033     2500     2501 1
    2034     2122     2123 1
    2035     1030     1031 1
    2036     3280     3282 1
    2037     3604     3606 1
    2038     1602     1603 1
    2039     3385     3387 1
    2040     1415     1416 1
    2041     3367     3368 1
    2042      305      306 1
    2043     1735     1737 1
    2044     2050     2051 1
    2045      924      925 1
    2046     2836     2837 1
    2047     1906     1907 1
    2048      252      253 1
    2049      500      501 1
    2050     1043     1041 1
    2051      487      490 1
    2052      785      786 1
    2053      566      567 1
    2054     3241     3243 1
    2055     1016     1015 1
    2056      501      503 1
    2057      222      223 1
    2058     2071     2072 1
    2059      434      436 1
    2060      106      107 1
    2061      100      101 1
    2062     1071     1072 1
    2063     1503     1504 1
    2064     1392     1393 1
    2065     2299     2300 1
    2066     1608     1609 1
    2067     1969     1970 1
    2068       65       66 1
    2069     1852     1853 1
    2070     2467     2468 1
    2071     3412     3413 1
    2072     2926     2927 1
    2073      116      117 1
    2074     3466     3467 1
    2075     3577     3578 1
    2076     2413     2414 1
    2077     2116     2117 1
    2078     2254     2255 1
    2079       35       36 1
    2080     1276     1255 1
    2081     2797     2799 1
    2082     2905     2907 1
    2083     2554     2556 1
    2084     3229     3231 1
    2085      996      997 1
    2086     3634     3636 1
    2087     1238     1239 1
    2088     1442     1443 1
    2089     1016     1017 1
    2090     1682     1684 1
    2091     2008     2010 1
    2092     1671     1670 1
    2093     1184     1185 1
    2094     1502     1503 1
    2095      968      969 1
    2096      962      963 1
    2097     1724     1725 1
    2098      944      945 1
    2099     3271     3272 1
    2100     1440     1441 1
    2101     1148     1149 1
    2102     3076     3078 1
    2103     2944     2945 1
    2104     1345     1346 1
    2105     1903     1904 1
    2106     2239     2241 1
    2107      798      799 1
    2108     1939     1940 1
    2109     1819     1820 1
    2110     1145     1146 1
    2111     2737     2739 1
    2112     3421     3423 1
    2113     3250     3252 1
    2114      744      743 1
    2115     2227     2228 1
    2116      278      279 1
    2117     1972     1974 1
    2118      386      387 1
    2119      872      873 1
    2120     1149     1150 1
    2121      353      354 1
    2122      444      445 1
    2123      609      611 1
    2124     2740     2741 1
    2125     2713     2715 1
    2126     2875     2877 1
    2127     3142     3144 1
    2128     2494     2496 1
    2129     2983     2985 1
    2130     2170     2172 1
    2131     1399     1400 1
    2132     1177     1178 1
    2133     1612     1613 1
    2134      964      965 1
    2135      570      571 1
    2136       88       89 1
    2137     1537     1538 1
    2138     1526     1527 1
    2139      348      349 1
    2140     1288     1289 1
    2141     1732     1733 1
    2142     1756     1757 1
    2143     3253     3254 1
    2144     1300     1301 1
    2145      447      448 1
    2146      817      818 1
    2147      163      166 1
    2148      493      494 1
    2149      771      772 1
    2150     1500     1499 1
    2151     1300     1297 1
    2152     1539     1540 1
    2153     1716     1717 1
    2154     1596     1597 1
    2155     2632     2633 1
    2156     2410     2411 1
    2157     2038     2039 1
    2158     1095     1096 1
    2159     1141     1142 1
    2160     3637     3639 1
    2161     2407     2409 1
    2162     1936     1937 1
    2163     1368     1369 1
    2164     2845     2846 1
    2165     1530     1531 1
    2166     1022     1023 1
    2167      317      318 1
    2168     1062     1064 1
    2169      536      537 1
    2170      947      948 1
    2171     1154     1155 1
    2172     1490     1491 1
    2173      278      281 1
    2174     1058     1059 1
    2175     1595     1596 1
    2176      386      389 1
    2177     3355     3357 1
    2178     2977     2979 1
    2179     3436     3438 1
    2180     2896     2898 1
    2181     2437     2439 1
    2182     2194     2196 1
    2183      146      147 1
    2184     1453     1454 1
    2185     1666     1667 1
    2186     3274     3276 1
    2187      663      665 1
    2188      192      193 1
    2189     2161     2163 1
    2190     2956     2957 1
    2191      840      841 1
    2192      618      619 1
    2193      507      508 1
    2194     2332     2333 1
    2195      977      978 1
    2196       51       52 1
    2197      908      909 1
    2198     1559     1560 1
    2199     1818     1816 1
    2200     3172     3174 1
    2201     2419     2420 1
    2202      413      414 1
    2203      862      863 1
    2204      424      425 1
    2205     2947     2949 1
    2206     1356     1357 1
    2207     2872     2874 1
    2208     1930     1931 1
    2209     3166     3167 1
    2210      295      296 1
    2211     1362     1363 1
    2212      156      155 1
    2213     1127     1126 1
    2214      942      941 1
    2215     2221     2223 1
    2216     3076     3077 1
    2217     2392     2394 1
    2218     1202     1203 1
    2219     1687     1686 1
    2220     2005     2007 1
    2221      436      437 1
    2222      454      455 1
    2223      343      344 1
    2224      667      668 1
    2225     3160     3161 1
    2226     3037     3039 1
    2227      489      490 1
    2228     1389     1388 1
    2229      882      883 1
    2230     1100     1101 1
    2231      129      130 1
    2232      989      990 1
    2233     1097     1098 1
    2234      736      715 1
    2235      514      515 1
    2236      131      132 1
    2237      156      157 1
    2238     1127     1128 1
    2239      530      531 1
    2240     1400     1401 1
    2241       93       94 1
    2242     1613     1614 1
    2243     1064     1065 1
    2244     1250     1252 1
    2245     1990     1991 1
    2246     2293     2295 1
    2247     2458     2459 1
    2248      554      555 1
    2249      706      703 1
    2250      814      815 1
    2251     1136     1138 1
    2252      315      316 1
    2253     1562     1561 1
    2254     1855     1856 1
    2255     1037     1038 1
    2256     2350     2351 1
    2257      291      292 1
    2258      504      505 1
    2259      207      208 1
    2260     1353     1354 1
    2261     1029     1030 1
    2262     2659     2661 1
    2263     1789     1790 1
    2264     2128     2130 1
    2265      321      320 1
    2266      123      125 1
    2267     2581     2582 1
    2268     1996     1998 1
    2269     1705     1706 1
    2270     1689     1690 1
    2271     1159     1160 1
    2272     1060     1061 1
    2273      435      436 1
    2274      455      456 1
    2275      168      167 1
    2276      668      669 1
    2277     3574     3575 1
    2278     2236     2238 1
    2279     2545     2546 1
    2280     2707     2708 1
    2281     3625     3626 1
    2282     3544     3545 1
    2283     3301     3302 1
    2284     2302     2303 1
    2285     2626     2627 1
    2286       12       13 1
    2287     3082     3084 1
    2288     2161     2162 1
    2289     1628     1630 1
    2290     1951     1953 1
    2291     1975     1977 1
    2292     1831     1833 1
    2293      868      869 1
    2294      106      105 1
    2295       22       23 1
    2296     1389     1390 1
    2297      894      895 1
    2298     1466     1467 1
    2299     1574     1575 1
    2300     1993     1994 1
    2301     1652     1653 1
    2302     2668     2669 1
    2303     3181     3182 1
    2304     3370     3371 1
    2305     3586     3587 1
    2306     3208     3209 1
    2307     2101     2102 1
    2308     2263     2264 1
    2309     2371     2372 1
    2310     2749     2750 1
    2311     2452     2453 1
    2312      109      112 1
    2313     2251     2253 1
    2314     1229     1230 1
    2315      205      206 1
    2316      208      209 1
    2317      371      370 1
    2318     1217     1218 1
    2319      630      632 1
    2320      372      373 1
    2321     1584     1585 1
    2322     1155     1156 1
    2323     1695     1696 1
    2324     1266     1267 1
    2325      639      640 1
    2326      593      594 1
    2327     1692     1693 1
    2328       76       77 1
    2329     3556     3557 1
    2330     1885     1886 1
    2331     3394     3395 1
    2332     2638     2639 1
    2333     3475     3476 1
    2334      583      584 1
    2335     1843     1845 1
    2336     1963     1965 1
    2337     2812     2813 1
    2338     1520     1521 1
    2339      478      479 1
    2340     1987     1989 1
    2341      954      955 1
    2342     3445     3446 1
    2343     2365     2366 1
    2344     3202     3203 1
    2345     2257     2258 1
    2346     1634     1635 1
    2347     3175     3176 1
    2348     2446     2447 1
    2349     3013     3014 1
    2350     3094     3095 1
    2351     3514     3515 1
    2352      491      492 1
    2353     1199     1200 1
    2354      212      213 1
    2355      647      648 1
    2356     1191     1192 1
    2357     3505     3506 1
    2358      737      738 1
    2359      845      846 1
    2360     3121     3122 1
    2361     3439     3440 1
    2362     3451     3453 1
    2363     2155     2156 1
    2364      706      704 1
    2365     2293     2294 1
    2366     2689     2690 1
    2367      326      328 1
    2368      218      220 1
    2369     2359     2360 1
    2370     1304     1306 1
    2371     3124     3126 1
    2372     2542     2544 1
    2373      916      917 1
    2374     2083     2085 1
    2375     2341     2343 1
    2376     3541     3543 1
    2377     2206     2208 1
    2378     3043     3045 1
    2379     3001     3003 1
    2380     1750     1752 1
    2381      721      720 1
    2382     2020     2021 1
    2383     1876     1877 1
    2384      767      768 1
    2385     1771     1772 1
    2386     2134     2135 1
    2387     2521     2522 1
    2388     3133     3134 1
    2389     2602     2603 1
    2390     2242     2243 1
    2391     2791     2792 1
    2392     3523     3524 1
    2393     3052     3053 1
    2394     2485     2486 1
    2395     2851     2853 1
    2396     1768     1770 1
    2397     2770     2772 1
    2398     1978     1980 1
    2399      428      429 1
    2400      422      423 1
    2401      740      741 1
    2402      221      220 1
    2403     1984     1986 1
    2404     3502     3503 1
    2405      306      308 1
    2406     1438     1439 1
    2407     3196     3198 1
    2408     1472     1473 1
    2409      706      707 1
    2410      437      438 1
    2411     1012     1013 1
    2412     1123     1124 1
    2413     1018     1019 1
    2414      152      153 1
    2415      169      168 1
    2416     1783     1784 1
    2417      267      268 1
    2418      480      481 1
    2419     2233     2235 1
    2420     1206     1207 1
    2421       60       61 1
    2422     1463     1464 1
    2423     3133     3135 1
    2424     2485     2487 1
    2425     2134     2136 1
    2426     2053     2055 1
    2427     3052     3054 1
    2428     3322     3324 1
    2429      933      935 1
    2430     2215     2217 1
    2431     3340     3342 1
    2432     3160     3162 1
    2433     1678     1679 1
    2434     2953     2955 1
    2435     2296     2297 1
    2436      599      600 1
    2437     1307     1308 1
    2438     2209     2211 1
    2439     2824     2826 1
    2440      855      854 1
    2441     1265     1264 1
    2442     2749     2751 1
    2443     1852     1854 1
    2444      916      915 1
    2445     1411     1410 1
    2446     3562     3563 1
    2447     2968     2969 1
    2448     2725     2726 1
    2449       15       16 1
    2450     1918     1920 1
    2451     2887     2888 1
    2452     3400     3401 1
    2453      629      630 1
    2454     3481     3482 1
    2455     2644     2645 1
    2456     3469     3471 1
    2457     3442     3444 1
    2458     2362     2364 1
    2459     2764     2766 1
    2460     2092     2094 1
    2461     2683     2685 1
    2462     3520     3522 1
    2463     1066     1067 1
    2464     2278     2280 1
    2465      438      439 1
    2466     1507     1508 1
    2467     1714     1715 1
    2468      970      971 1
    2469       95       96 1
    2470       26       27 1
    2471     1396     1397 1
    2472      889      890 1
    2473     1078     1079 1
    2474      869      870 1
    2475     2119     2121 1
    2476     3007     3009 1
    2477      310      309 1
    2478      421      420 1
    2479     3517     3519 1
    2480     2335     2337 1
    2481     3325     3327 1
    2482     1903     1905 1
    2483      170      171 1
    2484      714      715 1
    2485     1182     1183 1
    2486     1506     1507 1
    2487     1719     1720 1
    2488     1542     1543 1
    2489     2902     2903 1
    2490     2725     2727 1
    2491     2968     2970 1
    2492     2887     2889 1
    2493     3481     3483 1
    2494     3562     3564 1
    2495       57       58 1
    2496     3400     3402 1
    2497     2644     2646 1
    2498      517      518 1
    2499     2401     2403 1
    2500     1465     1466 1
    2501     1357     1358 1
    2502     1419     1420 1
    2503      723      724 1
    2504     1311     1312 1
    2505     1708     1687 1
    2506     1384     1363 1
    2507     1798     1800 1
    2508     3331     3333 1
    2509     3430     3431 1
    2510     2290     2292 1
    2511      887      888 1
    2512       30       31 1
    2513       18       19 1
    2514     1538     1539 1
    2515     1289     1290 1
    2516     3328     3330 1
    2517     2491     2493 1
    2518     2059     2061 1
    2519     3139     3141 1
    2520     2329     2331 1
    2521     2167     2169 1
    2522      872      874 1
    2523      744      745 1
    2524     2248     2250 1
    2525     3166     3168 1
    2526      692      693 1
    2527      404      405 1
    2528      293      294 1
    2529      229      230 1
    2530      771      773 1
    2531      447      449 1
    2532      830      831 1
    2533      183      184 1
    2534     2041     2043 1
    2535     1355     1356 1
    2536     1031     1032 1
    2537     2242     2244 1
    2538     1139     1138 1
    2539      276      277 1
    2540      645      646 1
    2541     1088     1089 1
    2542     3595     3596 1
    2543     2368     2369 1
    2544     2260     2261 1
    2545     2677     2678 1
    2546     2110     2111 1
    2547     2758     2759 1
    2548     3016     3017 1
    2549     2449     2450 1
    2550     3205     3206 1
    2551     1494     1495 1
    2552     2608     2609 1
    2553     2527     2528 1
    2554     3499     3500 1
    2555     2743     2744 1
    2556     3283     3284 1
    2557     3607     3608 1
    2558     3580     3581 1
    2559     2986     2987 1
    2560     3067     3068 1
    2561     1515     1516 1
    2562      583      582 1
    2563      322      323 1
    2564      535      536 1
    2565      859      860 1
    2566     1114     1093 1
    2567      748      749 1
    2568      112      113 1
    2569     1369     1370 1
    2570      729      730 1
    2571     3091     3092 1
    2572     2140     2142 1
    2573      234      235 1
    2574     1635     1637 1
    2575     2137     2138 1
    2576     2416     2417 1
    2577     2881     2883 1
    2578     2326     2328 1
    2579     2719     2721 1
    2580      980      982 1
    2581     2245     2247 1
    2582     1933     1935 1
    2583     2962     2964 1
    2584     2989     2991 1
    2585     2827     2829 1
    2586     3136     3138 1
    2587     1084     1085 1
    2588      813      814 1
    2589      656      659 1
    2590      332      335 1
    2591      457      458 1
    2592      606      607 1
    2593      939      940 1
    2594      451      452 1
    2595     2002     2004 1
    2596      821      822 1
    2597      527      528 1
    2598     1673     1674 1
    2599      851      852 1
    2600     1349     1350 1
    2601      153      154 1
    2602      863      864 1
    2603     1124     1125 1
    2604      896      897 1
    2605     1610     1611 1
    2606     1746     1744 1
    2607      884      885 1
    2608     1286     1287 1
    2609     1945     1947 1
    2610     1825     1827 1
    2611     1382     1383 1
    2612      926      928 1
    2613     1969     1971 1
    2614     1966     1967 1
    2615     2014     2015 1
    2616     2671     2673 1
    2617      306      307 1
    2618     2854     2855 1
    2619      593      592 1
    2620      598      599 1
    2621     2287     2289 1
    2622     1879     1880 1
    2623     2866     2867 1
    2624     1051     1052 1
    2625      661      662 1
    2626      337      338 1
    2627     1115     1116 1
    2628     1223     1224 1
    2629     2314     2316 1
    2630      283      284 1
    2631     1675     1678 1
    2632      142      143 1
    2633     2593     2594 1
    2634      708      709 1
    2635      643      642 1
    2636      472      473 1
    2637      691      692 1
    2638     1315     1316 1
    2639     1645     1646 1
    2640      997      998 1
    2641      921      922 1
    2642     1677     1678 1
    2643      655      656 1
    2644      609      610 1
    2645      331      332 1
    2646      285      286 1
    2647     3361     3362 1
    2648      644      645 1
    2649      638      639 1
    2650      707      708 1
    2651      641      642 1
    2652     2938     2939 1
    2653     1215     1214 1
    2654     2470     2471 1
    2655      940      941 1
    2656     1519     1520 1
    2657     1195     1196 1
    2658     1702     1703 1
    2659     1489     1490 1
    2660     1609     1610 1
    2661     3550     3552 1
    2662     3463     3464 1
    2663     3382     3383 1
    2664     3247     3248 1
    2665      453      454 1
    2666     2923     2924 1
    2667     3220     3221 1
    2668      678      679 1
    2669     2464     2465 1
    2670     2383     2384 1
    2671      953      954 1
    2672      878      879 1
    2673     2038     2040 1
    2674     2710     2712 1
    2675     1564     1565 1
    2676      913      914 1
    2677     1192     1193 1
    2678     2056     2058 1
    2679     1855     1857 1
    2680       42       43 1
    2681      596      598 1
    2682     2017     2018 1
    2683     1873     1874 1
    2684     1152     1153 1
    2685     1682     1683 1
    2686     2965     2966 1
    2687     2884     2885 1
    2688     3316     3317 1
    2689     2722     2723 1
    2690     3154     3155 1
    2691      250      229 1
    2692      466      445 1
    2693      574      553 1
    2694     2479     2480 1
    2695     2317     2318 1
    2696      119      120 1
    2697     1774     1776 1
    2698     2062     2064 1
    2699     2200     2201 1
    2700     1212     1213 1
    2701     1638     1639 1
    2702     1323     1324 1
    2703      130      131 1
    2704     3088     3089 1
    2705     3349     3350 1
    2706     1658     1659 1
    2707     1142     1145 1
    2708     1710     1712 1
    2709      879      881 1
    2710     1981     1982 1
    2711     2461     2462 1
    2712     1445     1446 1
    2713     1338     1339 1
    2714     1668     1669 1
    2715     1020     1021 1
    2716     2476     2477 1
    2717     2929     2931 1
    2718      470      471 1
    2719     1352     1354 1
    2720     3286     3288 1
    2721      686      687 1
    2722     3379     3381 1
    2723      731      732 1
    2724      395      396 1
    2725      512      513 1
    2726      699      700 1
    2727      363      364 1
    2728     1882     1884 1
    2729     1801     1803 1
    2730     1164     1165 1
    2731     1476     1477 1
    2732     2782     2783 1
    2733      655      654 1
    2734      732      733 1
    2735      600      601 1
    2736      513      514 1
    2737      396      397 1
    2738      166      167 1
    2739     2785     2787 1
    2740     1867     1869 1
    2741       69       71 1
    2742     1462     1460 1
    2743      844      845 1
    2744     3310     3311 1
    2745     2473     2474 1
    2746     3148     3149 1
    2747     2311     2312 1
    2748     2149     2150 1
    2749     2230     2231 1
    2750     3097     3098 1
    2751     3496     3498 1
    2752     3223     3225 1
    2753     3073     3075 1
    2754     1759     1761 1
    2755       13       14 1
    2756     1222     1201 1
    2757     2230     2232 1
    2758     2173     2175 1
    2759     1447     1448 1
    2760     2734     2736 1
    2761      716      717 1
    2762      792      793 1
    2763      271      274 1
    2764      595      598 1
    2765     3103     3104 1
    2766      776      777 1
    2767      452      453 1
    2768      239      240 1
    2769      788      789 1
    2770      877      878 1
    2771     1470     1471 1
    2772     2584     2585 1
    2773     3280     3281 1
    2774     3604     3605 1
    2775     3385     3386 1
    2776     1053     1052 1
    2777       82       81 1
    2778     2671     2672 1
    2779      565      566 1
    2780      676      677 1
    2781      679      680 1
    2782     1516     1517 1
    2783      224      227 1
    2784      282      283 1
    2785     1395     1396 1
    2786       25       26 1
    2787      957      958 1
    2788     1617     1618 1
    2789     1281     1282 1
    2790      969      970 1
    2791      403      404 1
    2792     1293     1294 1
    2793     2674     2675 1
    2794     1077     1076 1
    2795     3511     3512 1
    2796      899      900 1
    2797     3304     3305 1
    2798     2305     2306 1
    2799     2269     2270 1
    2800     3388     3389 1
    2801     3628     3629 1
    2802     1008     1010 1
    2803     2755     2756 1
    2804     2575     2576 1
    2805      110      112 1
    2806     1858     1860 1
    2807      443      444 1
    2808      605      606 1
    2809     1235     1236 1
    2810      545      544 1
    2811     1864     1866 1
    2812      414      416 1
    2813      522      524 1
    2814     1712     1713 1
    2815     1157     1158 1
    2816     3115     3117 1
    2817     1364     1365 1
    2818     1688     1689 1
    2819     1202     1201 1
    2820      761      762 1
    2821     2380     2382 1
    2822     1234     1235 1
    2823      423      424 1
    2824      905      904 1
    2825      858      859 1
    2826     2746     2748 1
    2827     1660     1661 1
    2828      741      742 1
    2829      553      554 1
    2830      898      899 1
    2831     1915     1916 1
    2832     1027     1030 1
    2833     1685     1686 1
    2834     2674     2676 1
    2835     3106     3108 1
    2836     3511     3513 1
    2837     2269     2271 1
    2838     2755     2757 1
    2839     3025     3027 1
    2840     3259     3261 1
    2841     3592     3594 1
    2842     3187     3189 1
    2843      623      624 1
    2844      348      347 1
    2845     1623     1624 1
    2846      472      471 1
    2847     2737     2738 1
    2848     3019     3021 1
    2849      818      819 1
    2850     2020     2022 1
    2851      494      495 1
    2852     1594     1595 1
    2853      946      947 1
    2854     1087     1088 1
    2855       86       87 1
    2856     1041     1042 1
    2857     1057     1058 1
    2858     1876     1878 1
    2859     1581     1582 1
    2860      651      652 1
    2861      233      234 1
    2862      344      345 1
    2863       67       68 1
    2864     3250     3251 1
    2865     3358     3360 1
    2866     1587     1586 1
    2867     2197     2199 1
    2868     2980     2982 1
    2869     2767     2769 1
    2870     2440     2442 1
    2871      107      108 1
    2872     2899     2901 1
    2873     2308     2310 1
    2874     1618     1619 1
    2875      967      968 1
    2876     1282     1283 1
    2877       23       24 1
    2878      345      346 1
    2879     1807     1809 1
    2880     1504     1505 1
    2881     1061     1062 1
    2882     2125     2127 1
    2883     2629     2631 1
    2884     3598     3600 1
    2885     1729     1730 1
    2886     1624     1625 1
    2887        8       11 1
    2888      555      556 1
    2889     1301     1302 1
    2890      256      257 1
    2891     3613     3614 1
    2892     3049     3051 1
    2893     3568     3570 1
    2894     2008     2009 1
    2895      622      623 1
    2896     1332     1334 1
    2897     1520     1523 1
    2898     2143     2145 1
    2899     1786     1788 1
    2900     1013     1014 1
    2901      314      315 1
    2902     1449     1448 1
    2903     1481     1482 1
    2904     1268     1269 1
    2905      482      481 1
    2906      818      821 1
    2907     2443     2445 1
    2908      494      497 1
    2909      995      996 1
    2910     2893     2894 1
    2911     2680     2682 1
    2912     3085     3087 1
    2913     2086     2088 1
    2914      274      275 1
    2915     2761     2763 1
    2916     3004     3006 1
    2917      149      150 1
    2918     1120     1121 1
    2919     1456     1457 1
    2920     1663     1664 1
    2921      515      516 1
    2922      614      615 1
    2923      446      445 1
    2924      827      828 1
    2925      839      840 1
    2926      401      402 1
    2927      261      262 1
    2928      621      622 1
    2929      834      835 1
    2930     1581     1583 1
    2931       45       46 1
    2932     1553     1554 1
    2933      114      115 1
    2934     1085     1086 1
    2935       39       40 1
    2936     3559     3561 1
    2937     3397     3399 1
    2938     2560     2562 1
    2939     2803     2805 1
    2940     3640     3642 1
    2941     1572     1571 1
    2942     3289     3291 1
    2943      170      172 1
    2944     2911     2913 1
    2945     2398     2400 1
    2946     2284     2286 1
    2947      198      199 1
    2948      427      428 1
    2949      310      311 1
    2950     1082     1084 1
    2951      421      422 1
    2952      316      317 1
    2953     1104     1103 1
    2954     3370     3372 1
    2955      587      588 1
    2956      191      192 1
    2957      182      183 1
    2958     1267     1268 1
    2959      473      474 1
    2960      362      363 1
    2961      188      189 1
    2962       68       69 1
    2963      479      480 1
    2964      144      145 1
    2965     1276     1277 1
    2966        3        4 1
    2967      665      666 1
    2968      464      465 1
    2969     2623     2624 1
    2970     2503     2504 1
    2971      228      229 1
    2972     3589     3590 1
    2973     2794     2795 1
    2974     3172     3173 1
    2975      987      989 1
    2976     3163     3164 1
@<TRIPOS>SUBSTRUCTURE
       1 RES             1 RESIDUE    0 **** ROOT      0
