@<TRIPOS>MOLECULE
RES
12352 9664 1 0 1
SMALL
NO_CHARGES
@<TRIPOS>CRYSIN
   56.5120    52.5931    96.5600    90.0000    90.0000    90.0000  1  1
@<TRIPOS>ATOM
       1 CH3         16.4317    10.9545     0.0000 CH3           1 RES     
       2 CH3         15.2303    11.9035     1.7858 CH3           1 RES     
       3 CH3         17.2567    12.5700     1.3040 CH3           1 RES     
       4 NL          16.1260    12.0932     0.8091 NL            1 RES     
       5 CH2         15.7141    13.1254    -0.0295 CH2           1 RES     
       6 CH2         14.4025    12.5403    -0.5853 CH2           1 RES     
       7 OA          13.7089    14.2301    -4.0374 OA            1 RES     
       8 P           14.3509    13.2030    -2.9920 P             1 RES     
       9 OM          13.8955    11.7374    -3.4442 OM            1 RES     
      10 OM          15.9323    13.4448    -3.0178 OM            1 RES     
      11 OA          13.7868    13.5100    -1.5265 OA            1 RES     
      12 CH2         14.2537    13.9162    -5.3827 CH2           1 RES     
      13 CH1         13.6567    14.8870    -6.4184 CH1           1 RES     
      14 OE          14.7401    15.6471    -7.0584 OE            1 RES     
      15 C           14.3960    15.1374    -8.4265 C             1 RES     
      16 O           13.4760    14.3577    -8.6685 O             1 RES     
      17 CH2         15.4653    15.5993    -9.2125 CH2           1 RES     
      18 CH2         15.1696    14.9538   -10.5790 CH2           1 RES     
      19 CH2         16.3484    15.2124   -11.5357 CH2           1 RES     
      20 CH2         16.0527    14.5669   -12.9022 CH2           1 RES     
      21 CH2         17.2315    14.8255   -13.8588 CH2           1 RES     
      22 CH2         16.9357    14.1800   -15.2253 CH2           1 RES     
      23 CH2         18.1145    14.4386   -16.1820 CH2           1 RES     
      24 CH2         17.8188    13.7931   -17.5485 CH2           1 RES     
      25 CH2         18.9976    14.0517   -18.5051 CH2           1 RES     
      26 CH2         18.7019    13.4062   -19.8716 CH2           1 RES     
      27 CH2         19.8807    13.6648   -20.8282 CH2           1 RES     
      28 CH2         19.5850    13.0193   -22.1948 CH2           1 RES     
      29 CH2         20.7638    13.2779   -23.1514 CH2           1 RES     
      30 CH2         20.4680    12.6324   -24.5179 CH2           1 RES     
      31 CH2         21.6468    12.8911   -25.4745 CH2           1 RES     
      32 CH2         21.3511    12.2455   -26.8411 CH2           1 RES     
      33 CH3         22.4763    12.4924   -27.7542 CH3           1 RES     
      34 CH2         12.8884    14.0879    -7.4874 CH2           1 RES     
      35 OE          11.7373    13.4277    -6.8682 OE            1 RES     
      36 C           11.1696    12.7851    -8.0990 C             1 RES     
      37 O           10.1565    12.0879    -8.1168 O             1 RES     
      38 CH2         12.1648    13.0185    -9.0633 CH2           1 RES     
      39 CH2         11.6323    12.2370   -10.2787 CH2           1 RES     
      40 CH2         12.6939    12.2356   -11.3943 CH2           1 RES     
      41 CH2         12.1614    11.4541   -12.6097 CH2           1 RES     
      42 CH2         13.2230    11.4527   -13.7253 CH2           1 RES     
      43 CH2         12.6904    10.6712   -14.9407 CH2           1 RES     
      44 CH2         13.7521    10.6698   -16.0563 CH2           1 RES     
      45 CH2         13.2195     9.8882   -17.2717 CH2           1 RES     
      46 CH2         14.2811     9.8869   -18.3873 CH2           1 RES     
      47 CH2         13.7486     9.1053   -19.6028 CH2           1 RES     
      48 CH2         14.8102     9.1039   -20.7183 CH2           1 RES     
      49 CH2         14.2777     8.3224   -21.9338 CH2           1 RES     
      50 CH2         15.3393     8.3210   -23.0494 CH2           1 RES     
      51 CH2         14.8068     7.5395   -24.2648 CH2           1 RES     
      52 CH2         15.8684     7.5381   -25.3804 CH2           1 RES     
      53 CH2         15.3358     6.7566   -26.5958 CH2           1 RES     
      54 CH3         16.3492     6.7553   -27.6607 CH3           1 RES     
      55 CH3         21.9089     0.0000     0.0000 CH3           1 RES     
      56 CH3         20.7586     1.0103     1.7858 CH3           1 RES     
      57 CH3         22.8170     1.5704     1.3040 CH3           1 RES     
      58 NL          21.6630     1.1531     0.8091 NL            1 RES     
      59 CH2         21.3055     2.2054    -0.0295 CH2           1 RES     
      60 CH2         19.9652     1.6895    -0.5853 CH2           1 RES     
      61 OA          19.3605     3.4131    -4.0374 OA            1 RES     
      62 P           19.9482     2.3540    -2.9920 P             1 RES     
      63 OM          19.4170     0.9141    -3.4442 OM            1 RES     
      64 OM          21.5400     2.5130    -3.0178 OM            1 RES     
      65 OA          19.4008     2.6899    -1.5265 OA            1 RES     
      66 CH2         19.8882     3.0712    -5.3827 CH2           1 RES     
      67 CH1         19.3427     4.0718    -6.4184 CH1           1 RES     
      68 OE          20.4641     4.7744    -7.0584 OE            1 RES     
      69 C           20.0940     4.2833    -8.4265 C             1 RES     
      70 O           19.1346     3.5527    -8.6685 O             1 RES     
      71 CH2         21.1859     4.6889    -9.2125 CH2           1 RES     
      72 CH2         20.8570     4.0596   -10.5790 CH2           1 RES     
      73 CH2         22.0476     4.2565   -11.5357 CH2           1 RES     
      74 CH2         21.7187     3.6272   -12.9022 CH2           1 RES     
      75 CH2         22.9093     3.8241   -13.8588 CH2           1 RES     
      76 CH2         22.5804     3.1949   -15.2253 CH2           1 RES     
      77 CH2         23.7711     3.3918   -16.1820 CH2           1 RES     
      78 CH2         23.4421     2.7625   -17.5485 CH2           1 RES     
      79 CH2         24.6328     2.9594   -18.5051 CH2           1 RES     
      80 CH2         24.3038     2.3301   -19.8716 CH2           1 RES     
      81 CH2         25.4945     2.5270   -20.8282 CH2           1 RES     
      82 CH2         25.1655     1.8977   -22.1948 CH2           1 RES     
      83 CH2         26.3562     2.0946   -23.1514 CH2           1 RES     
      84 CH2         26.0272     1.4653   -24.5179 CH2           1 RES     
      85 CH2         27.2179     1.6622   -25.4745 CH2           1 RES     
      86 CH2         26.8889     1.0329   -26.8411 CH2           1 RES     
      87 CH3         28.0255     1.2208   -27.7542 CH3           1 RES     
      88 CH2         18.5337     3.3138    -7.4874 CH2           1 RES     
      89 OE          17.3498     2.7145    -6.8682 OE            1 RES     
      90 C           16.7494     2.1024    -8.0990 C             1 RES     
      91 O           15.7013     1.4590    -8.1168 O             1 RES     
      92 CH2         17.7554     2.2836    -9.0633 CH2           1 RES     
      93 CH2         17.1829     1.5309   -10.2787 CH2           1 RES     
      94 CH2         18.2430     1.4742   -11.3943 CH2           1 RES     
      95 CH2         17.6704     0.7215   -12.6097 CH2           1 RES     
      96 CH2         18.7305     0.6648   -13.7253 CH2           1 RES     
      97 CH2         18.1580    -0.0879   -14.9407 CH2           1 RES     
      98 CH2         19.2181    -0.1447   -16.0563 CH2           1 RES     
      99 CH2         18.6455    -0.8974   -17.2717 CH2           1 RES     
     100 CH2         19.7056    -0.9541   -18.3873 CH2           1 RES     
     101 CH2         19.1331    -1.7068   -19.6028 CH2           1 RES     
     102 CH2         20.1932    -1.7635   -20.7183 CH2           1 RES     
     103 CH2         19.6207    -2.5162   -21.9338 CH2           1 RES     
     104 CH2         20.6808    -2.5729   -23.0494 CH2           1 RES     
     105 CH2         20.1082    -3.3256   -24.2648 CH2           1 RES     
     106 CH2         21.1683    -3.3823   -25.3804 CH2           1 RES     
     107 CH2         20.5958    -4.1350   -26.5958 CH2           1 RES     
     108 CH3         21.6077    -4.1892   -27.6607 CH3           1 RES     
     109 CH3         10.9545    38.3406     0.0000 CH3           1 RES     
     110 CH3          9.7783    39.3207     1.7858 CH3           1 RES     
     111 CH3         11.8215    39.9340     1.3040 CH3           1 RES     
     112 NL          10.6787    39.4869     0.8091 NL            1 RES     
     113 CH2         10.2939    40.5296    -0.0295 CH2           1 RES     
     114 CH2          8.9675    39.9790    -0.5853 CH2           1 RES     
     115 OA           8.3183    41.6863    -4.0374 OA            1 RES     
     116 P            8.9332    40.6428    -2.9920 P             1 RES     
     117 OM           8.4396    39.1896    -3.4442 OM            1 RES     
     118 OM          10.5204    40.8432    -3.0178 OM            1 RES     
     119 OA           8.3773    40.9644    -1.5265 OA            1 RES     
     120 CH2          8.8547    41.3583    -5.3827 CH2           1 RES     
     121 CH1          8.2833    42.3444    -6.4184 CH1           1 RES     
     122 OE           9.3862    43.0759    -7.0584 OE            1 RES     
     123 C            9.0289    42.5753    -8.4265 C             1 RES     
     124 O            8.0888    41.8200    -8.6685 O             1 RES     
     125 CH2         10.1099    43.0091    -9.2125 CH2           1 RES     
     126 CH2          9.7974    42.3715   -10.5790 CH2           1 RES     
     127 CH2         10.9826    42.5993   -11.5357 CH2           1 RES     
     128 CH2         10.6701    41.9617   -12.9022 CH2           1 RES     
     129 CH2         11.8552    42.1894   -13.8588 CH2           1 RES     
     130 CH2         11.5427    41.5518   -15.2253 CH2           1 RES     
     131 CH2         12.7279    41.7796   -16.1820 CH2           1 RES     
     132 CH2         12.4154    41.1419   -17.5485 CH2           1 RES     
     133 CH2         13.6005    41.3697   -18.5051 CH2           1 RES     
     134 CH2         13.2880    40.7321   -19.8716 CH2           1 RES     
     135 CH2         14.4732    40.9598   -20.8282 CH2           1 RES     
     136 CH2         14.1607    40.3222   -22.1948 CH2           1 RES     
     137 CH2         15.3458    40.5500   -23.1514 CH2           1 RES     
     138 CH2         15.0333    39.9124   -24.5179 CH2           1 RES     
     139 CH2         16.2185    40.1401   -25.4745 CH2           1 RES     
     140 CH2         15.9060    39.5025   -26.8411 CH2           1 RES     
     141 CH3         17.0373    39.7199   -27.7542 CH3           1 RES     
     142 CH2          7.4944    41.5656    -7.4874 CH2           1 RES     
     143 OE           6.3264    40.9357    -6.8682 OE            1 RES     
     144 C            5.7421    40.3083    -8.0990 C             1 RES     
     145 O            4.7110    39.6378    -8.1168 O             1 RES     
     146 CH2          6.7430    40.5155    -9.0633 CH2           1 RES     
     147 CH2          6.1902    39.7482   -10.2787 CH2           1 RES     
     148 CH2          7.2515    39.7190   -11.3943 CH2           1 RES     
     149 CH2          6.6987    38.9517   -12.6097 CH2           1 RES     
     150 CH2          7.7599    38.9225   -13.7253 CH2           1 RES     
     151 CH2          7.2071    38.1552   -14.9407 CH2           1 RES     
     152 CH2          8.2683    38.1261   -16.0563 CH2           1 RES     
     153 CH2          7.7155    37.3588   -17.2717 CH2           1 RES     
     154 CH2          8.7767    37.3296   -18.3873 CH2           1 RES     
     155 CH2          8.2239    36.5623   -19.6028 CH2           1 RES     
     156 CH2          9.2851    36.5331   -20.7183 CH2           1 RES     
     157 CH2          8.7323    35.7658   -21.9338 CH2           1 RES     
     158 CH2          9.7936    35.7366   -23.0494 CH2           1 RES     
     159 CH2          9.2408    34.9693   -24.2648 CH2           1 RES     
     160 CH2         10.3020    34.9402   -25.3804 CH2           1 RES     
     161 CH2          9.7492    34.1729   -26.5958 CH2           1 RES     
     162 CH3         10.7622    34.1450   -27.6607 CH3           1 RES     
     163 CH3          0.0000    10.9545     0.0000 CH3           1 RES     
     164 CH3         -1.0868    12.0328     1.7858 CH3           1 RES     
     165 CH3          1.0018    12.4668     1.3040 CH3           1 RES     
     166 NL          -0.1754    12.1204     0.8091 NL            1 RES     
     167 CH2         -0.4683    13.1925    -0.0295 CH2           1 RES     
     168 CH2         -1.8375    12.7589    -0.5853 CH2           1 RES     
     169 OA          -2.3364    14.5160    -4.0374 OA            1 RES     
     170 P           -1.8141    13.4232    -2.9920 P             1 RES     
     171 OM          -2.4318    12.0182    -3.4442 OM            1 RES     
     172 OM          -0.2155    13.4852    -3.0178 OM            1 RES     
     173 OA          -2.3401    13.7917    -1.5265 OA            1 RES     
     174 CH2         -1.8304    14.1427    -5.3827 CH2           1 RES     
     175 CH1         -2.3141    15.1747    -6.4184 CH1           1 RES     
     176 OE          -1.1520    15.8078    -7.0584 OE            1 RES     
     177 C           -1.5513    15.3401    -8.4265 C             1 RES     
     178 O           -2.5534    14.6691    -8.6685 O             1 RES     
     179 CH2         -0.4368    15.6786    -9.2125 CH2           1 RES     
     180 CH2         -0.8034    15.0705   -10.5790 CH2           1 RES     
     181 CH2          0.3971    15.1947   -11.5357 CH2           1 RES     
     182 CH2          0.0305    14.5866   -12.9022 CH2           1 RES     
     183 CH2          1.2309    14.7108   -13.8588 CH2           1 RES     
     184 CH2          0.8643    14.1026   -15.2253 CH2           1 RES     
     185 CH2          2.0648    14.2268   -16.1820 CH2           1 RES     
     186 CH2          1.6982    13.6187   -17.5485 CH2           1 RES     
     187 CH2          2.8986    13.7429   -18.5051 CH2           1 RES     
     188 CH2          2.5320    13.1347   -19.8716 CH2           1 RES     
     189 CH2          3.7325    13.2589   -20.8282 CH2           1 RES     
     190 CH2          3.3659    12.6508   -22.1948 CH2           1 RES     
     191 CH2          4.5663    12.7750   -23.1514 CH2           1 RES     
     192 CH2          4.1997    12.1669   -24.5179 CH2           1 RES     
     193 CH2          5.4002    12.2910   -25.4745 CH2           1 RES     
     194 CH2          5.0336    11.6829   -26.8411 CH2           1 RES     
     195 CH3          6.1795    11.8015   -27.7542 CH3           1 RES     
     196 CH2         -3.1676    14.4672    -7.4874 CH2           1 RES     
     197 OE          -4.3858    13.9409    -6.8682 OE            1 RES     
     198 C           -5.0222    13.3664    -8.0990 C             1 RES     
     199 O           -6.1075    12.7878    -8.1168 O             1 RES     
     200 CH2         -4.0071    13.4861    -9.0633 CH2           1 RES     
     201 CH2         -4.6243    12.7696   -10.2787 CH2           1 RES     
     202 CH2         -3.5696    12.6486   -11.3943 CH2           1 RES     
     203 CH2         -4.1868    11.9321   -12.6097 CH2           1 RES     
     204 CH2         -3.1321    11.8111   -13.7253 CH2           1 RES     
     205 CH2         -3.7493    11.0945   -14.9407 CH2           1 RES     
     206 CH2         -2.6946    10.9735   -16.0563 CH2           1 RES     
     207 CH2         -3.3118    10.2570   -17.2717 CH2           1 RES     
     208 CH2         -2.2571    10.1360   -18.3873 CH2           1 RES     
     209 CH2         -2.8744     9.4195   -19.6028 CH2           1 RES     
     210 CH2         -1.8197     9.2984   -20.7183 CH2           1 RES     
     211 CH2         -2.4369     8.5819   -21.9338 CH2           1 RES     
     212 CH2         -1.3822     8.4609   -23.0494 CH2           1 RES     
     213 CH2         -1.9994     7.7444   -24.2648 CH2           1 RES     
     214 CH2         -0.9447     7.6234   -25.3804 CH2           1 RES     
     215 CH2         -1.5619     6.9068   -26.5958 CH2           1 RES     
     216 CH3         -0.5551     6.7913   -27.6607 CH3           1 RES     
     217 CH3          5.4772     5.4772     0.0000 CH3           1 RES     
     218 CH3          4.1668     6.2690     1.7858 CH3           1 RES     
     219 CH3          6.0943     7.1831     1.3040 CH3           1 RES     
     220 NL           5.0319     6.5690     0.8091 NL            1 RES     
     221 CH2          4.4945     7.5418    -0.0295 CH2           1 RES     
     222 CH2          3.2662     6.7977    -0.5853 CH2           1 RES     
     223 OA           2.3672     8.3877    -4.0374 OA            1 RES     
     224 P            3.1323     7.4488    -2.9920 P             1 RES     
     225 OM           2.8632     5.9378    -3.4442 OM            1 RES     
     226 OM           4.6712     7.8859    -3.0178 OM            1 RES     
     227 OA           2.5343     7.6830    -1.5265 OA            1 RES     
     228 CH2          2.9469     8.1442    -5.3827 CH2           1 RES     
     229 CH1          2.2335     9.0330    -6.4184 CH1           1 RES     
     230 OE           3.2136     9.9223    -7.0584 OE            1 RES     
     231 C            2.9358     9.3736    -8.4265 C             1 RES     
     232 O            2.1202     8.4853    -8.6685 O             1 RES     
     233 CH2          3.9392     9.9653    -9.2125 CH2           1 RES     
     234 CH2          3.7263     9.2879   -10.5790 CH2           1 RES     
     235 CH2          4.8636     9.6916   -11.5357 CH2           1 RES     
     236 CH2          4.6507     9.0142   -12.9022 CH2           1 RES     
     237 CH2          5.7880     9.4178   -13.8588 CH2           1 RES     
     238 CH2          5.5751     8.7404   -15.2253 CH2           1 RES     
     239 CH2          6.7125     9.1441   -16.1820 CH2           1 RES     
     240 CH2          6.4996     8.4667   -17.5485 CH2           1 RES     
     241 CH2          7.6369     8.8703   -18.5051 CH2           1 RES     
     242 CH2          7.4240     8.1929   -19.8716 CH2           1 RES     
     243 CH2          8.5613     8.5966   -20.8282 CH2           1 RES     
     244 CH2          8.3484     7.9192   -22.1948 CH2           1 RES     
     245 CH2          9.4857     8.3228   -23.1514 CH2           1 RES     
     246 CH2          9.2728     7.6454   -24.5179 CH2           1 RES     
     247 CH2         10.4102     8.0491   -25.4745 CH2           1 RES     
     248 CH2         10.1973     7.3717   -26.8411 CH2           1 RES     
     249 CH3         11.2829     7.7570   -27.7542 CH3           1 RES     
     250 CH2          1.5709     8.1443    -7.4874 CH2           1 RES     
     251 OE           0.5111     7.3457    -6.8682 OE            1 RES     
     252 C            0.0280     6.6374    -8.0990 C             1 RES     
     253 O           -0.8903     5.8193    -8.1168 O             1 RES     
     254 CH2          0.9863     6.9930    -9.0633 CH2           1 RES     
     255 CH2          0.5554     6.1512   -10.2787 CH2           1 RES     
     256 CH2          1.6089     6.2822   -11.3943 CH2           1 RES     
     257 CH2          1.1779     5.4404   -12.6097 CH2           1 RES     
     258 CH2          2.2314     5.5714   -13.7253 CH2           1 RES     
     259 CH2          1.8005     4.7296   -14.9407 CH2           1 RES     
     260 CH2          2.8540     4.8606   -16.0563 CH2           1 RES     
     261 CH2          2.4231     4.0188   -17.2717 CH2           1 RES     
     262 CH2          3.4766     4.1498   -18.3873 CH2           1 RES     
     263 CH2          3.0457     3.3080   -19.6028 CH2           1 RES     
     264 CH2          4.0992     3.4390   -20.7183 CH2           1 RES     
     265 CH2          3.6683     2.5971   -21.9338 CH2           1 RES     
     266 CH2          4.7218     2.7281   -23.0494 CH2           1 RES     
     267 CH2          4.2909     1.8863   -24.2648 CH2           1 RES     
     268 CH2          5.3444     2.0173   -25.3804 CH2           1 RES     
     269 CH2          4.9134     1.1755   -26.5958 CH2           1 RES     
     270 CH3          5.9191     1.3006   -27.6607 CH3           1 RES     
     271 CH3          0.0000     5.4772     0.0000 CH3           1 RES     
     272 CH3         -1.0763     6.5661     1.7858 CH3           1 RES     
     273 CH3          1.0164     6.9798     1.3040 CH3           1 RES     
     274 NL          -0.1641     6.6448     0.8091 NL            1 RES     
     275 CH2         -0.4466     7.7197    -0.0295 CH2           1 RES     
     276 CH2         -1.8200     7.2993    -0.5853 CH2           1 RES     
     277 OA          -2.3018     9.0613    -4.0374 OA            1 RES     
     278 P           -1.7901     7.9634    -2.9920 P             1 RES     
     279 OM          -2.4214     6.5645    -3.4442 OM            1 RES     
     280 OM          -0.1910     8.0100    -3.0178 OM            1 RES     
     281 OA          -2.3125     8.3370    -1.5265 OA            1 RES     
     282 CH2         -1.7994     8.6831    -5.3827 CH2           1 RES     
     283 CH1         -2.2732     9.7196    -6.4184 CH1           1 RES     
     284 OE          -1.1050    10.3415    -7.0584 OE            1 RES     
     285 C           -1.5088     9.8777    -8.4265 C             1 RES     
     286 O           -2.5173     9.2164    -8.6685 O             1 RES     
     287 CH2         -0.3910    10.2054    -9.2125 CH2           1 RES     
     288 CH2         -0.7635     9.6009   -10.5790 CH2           1 RES     
     289 CH2          0.4381     9.7134   -11.5357 CH2           1 RES     
     290 CH2          0.0656     9.1089   -12.9022 CH2           1 RES     
     291 CH2          1.2672     9.2214   -13.8588 CH2           1 RES     
     292 CH2          0.8948     8.6169   -15.2253 CH2           1 RES     
     293 CH2          2.0963     8.7294   -16.1820 CH2           1 RES     
     294 CH2          1.7239     8.1249   -17.5485 CH2           1 RES     
     295 CH2          2.9255     8.2375   -18.5051 CH2           1 RES     
     296 CH2          2.5530     7.6329   -19.8716 CH2           1 RES     
     297 CH2          3.7546     7.7455   -20.8282 CH2           1 RES     
     298 CH2          3.3821     7.1409   -22.1948 CH2           1 RES     
     299 CH2          4.5837     7.2535   -23.1514 CH2           1 RES     
     300 CH2          4.2113     6.6489   -24.5179 CH2           1 RES     
     301 CH2          5.4129     6.7615   -25.4745 CH2           1 RES     
     302 CH2          5.0404     6.1569   -26.8411 CH2           1 RES     
     303 CH3          6.1874     6.2644   -27.7542 CH3           1 RES     
     304 CH2         -3.1335     9.0205    -7.4874 CH2           1 RES     
     305 OE          -4.3567     8.5060    -6.8682 OE            1 RES     
     306 C           -4.9987     7.9377    -8.0990 C             1 RES     
     307 O           -6.0895     7.3697    -8.1168 O             1 RES     
     308 CH2         -3.9824     8.0476    -9.0633 CH2           1 RES     
     309 CH2         -4.6065     7.3371   -10.2787 CH2           1 RES     
     310 CH2         -3.5530     7.2058   -11.3943 CH2           1 RES     
     311 CH2         -4.1772     6.4953   -12.6097 CH2           1 RES     
     312 CH2         -3.1237     6.3641   -13.7253 CH2           1 RES     
     313 CH2         -3.7478     5.6536   -14.9407 CH2           1 RES     
     314 CH2         -2.6943     5.5224   -16.0563 CH2           1 RES     
     315 CH2         -3.3184     4.8119   -17.2717 CH2           1 RES     
     316 CH2         -2.2650     4.6806   -18.3873 CH2           1 RES     
     317 CH2         -2.8891     3.9701   -19.6028 CH2           1 RES     
     318 CH2         -1.8356     3.8389   -20.7183 CH2           1 RES     
     319 CH2         -2.4597     3.1284   -21.9338 CH2           1 RES     
     320 CH2         -1.4062     2.9972   -23.0494 CH2           1 RES     
     321 CH2         -2.0304     2.2867   -24.2648 CH2           1 RES     
     322 CH2         -0.9769     2.1554   -25.3804 CH2           1 RES     
     323 CH2         -1.6010     1.4449   -26.5958 CH2           1 RES     
     324 CH3         -0.5954     1.3197   -27.6607 CH3           1 RES     
     325 CH3         38.3406    16.4317     0.0000 CH3           1 RES     
     326 CH3         37.4042    17.6430     1.7858 CH3           1 RES     
     327 CH3         39.5317    17.7999     1.3040 CH3           1 RES     
     328 NL          38.3192    17.6106     0.8091 NL            1 RES     
     329 CH2         38.1691    18.7117    -0.0295 CH2           1 RES     
     330 CH2         36.7550    18.4610    -0.5853 CH2           1 RES     
     331 OA          36.4904    20.2684    -4.0374 OA            1 RES     
     332 P           36.8651    19.1166    -2.9920 P             1 RES     
     333 OM          36.0689    17.8045    -3.4442 OM            1 RES     
     334 OM          38.4581    18.9689    -3.0178 OM            1 RES     
     335 OA          36.3919    19.5508    -1.5265 OA            1 RES     
     336 CH2         36.9431    19.8321    -5.3827 CH2           1 RES     
     337 CH1         36.5986    20.9184    -6.4184 CH1           1 RES     
     338 OE          37.8335    21.3941    -7.0584 OE            1 RES     
     339 C           37.3764    20.9826    -8.4265 C             1 RES     
     340 O           36.2952    20.4485    -8.6685 O             1 RES     
     341 CH2         38.5257    21.1724    -9.2125 CH2           1 RES     
     342 CH2         38.0827    20.6175   -10.5790 CH2           1 RES     
     343 CH2         39.2891    20.5835   -11.5357 CH2           1 RES     
     344 CH2         38.8461    20.0286   -12.9022 CH2           1 RES     
     345 CH2         40.0524    19.9946   -13.8588 CH2           1 RES     
     346 CH2         39.6094    19.4397   -15.2253 CH2           1 RES     
     347 CH2         40.8158    19.4057   -16.1820 CH2           1 RES     
     348 CH2         40.3728    18.8508   -17.5485 CH2           1 RES     
     349 CH2         41.5791    18.8168   -18.5051 CH2           1 RES     
     350 CH2         41.1361    18.2619   -19.8716 CH2           1 RES     
     351 CH2         42.3425    18.2279   -20.8282 CH2           1 RES     
     352 CH2         41.8995    17.6730   -22.1948 CH2           1 RES     
     353 CH2         43.1059    17.6391   -23.1514 CH2           1 RES     
     354 CH2         42.6628    17.0841   -24.5179 CH2           1 RES     
     355 CH2         43.8692    17.0502   -25.4745 CH2           1 RES     
     356 CH2         43.4262    16.4952   -26.8411 CH2           1 RES     
     357 CH3         44.5777    16.4628   -27.7542 CH3           1 RES     
     358 CH2         35.6599    20.3287    -7.4874 CH2           1 RES     
     359 OE          34.3833    19.9663    -6.8682 OE            1 RES     
     360 C           33.6771    19.4801    -8.0990 C             1 RES     
     361 O           32.5255    19.0485    -8.1168 O             1 RES     
     362 CH2         34.6992    19.4659    -9.0633 CH2           1 RES     
     363 CH2         33.9935    18.8363   -10.2787 CH2           1 RES     
     364 CH2         35.0233    18.5784   -11.3943 CH2           1 RES     
     365 CH2         34.3177    17.9488   -12.6097 CH2           1 RES     
     366 CH2         35.3475    17.6908   -13.7253 CH2           1 RES     
     367 CH2         34.6418    17.0612   -14.9407 CH2           1 RES     
     368 CH2         35.6716    16.8032   -16.0563 CH2           1 RES     
     369 CH2         34.9659    16.1736   -17.2717 CH2           1 RES     
     370 CH2         35.9957    15.9156   -18.3873 CH2           1 RES     
     371 CH2         35.2901    15.2860   -19.6028 CH2           1 RES     
     372 CH2         36.3199    15.0280   -20.7183 CH2           1 RES     
     373 CH2         35.6142    14.3984   -21.9338 CH2           1 RES     
     374 CH2         36.6440    14.1404   -23.0494 CH2           1 RES     
     375 CH2         35.9384    13.5108   -24.2648 CH2           1 RES     
     376 CH2         36.9681    13.2528   -25.3804 CH2           1 RES     
     377 CH2         36.2625    12.6232   -26.5958 CH2           1 RES     
     378 CH3         37.2455    12.3770   -27.6607 CH3           1 RES     
     379 CH3         10.9545    10.9545     0.0000 CH3           1 RES     
     380 CH3          9.8134    11.9753     1.7858 CH3           1 RES     
     381 CH3         11.8769    12.5165     1.3040 CH3           1 RES     
     382 NL          10.7191    12.1098     0.8091 NL            1 RES     
     383 CH2         10.3712    13.1653    -0.0295 CH2           1 RES     
     384 CH2          9.0263    12.6616    -0.5853 CH2           1 RES     
     385 OA           8.4374    14.3907    -4.0374 OA            1 RES     
     386 P            9.0153    13.3263    -2.9920 P             1 RES     
     387 OM           8.4710    11.8913    -3.4442 OM            1 RES     
     388 OM          10.6086    13.4707    -3.0178 OM            1 RES     
     389 OA           8.4710    13.6672    -1.5265 OA            1 RES     
     390 CH2          8.9620    14.0440    -5.3827 CH2           1 RES     
     391 CH1          8.4256    15.0496    -6.4184 CH1           1 RES     
     392 OE           9.5534    15.7419    -7.0584 OE            1 RES     
     393 C            9.1788    15.2542    -8.4265 C             1 RES     
     394 O            8.2128    14.5324    -8.6685 O             1 RES     
     395 CH2         10.2744    15.6498    -9.2125 CH2           1 RES     
     396 CH2          9.9397    15.0235   -10.5790 CH2           1 RES     
     397 CH2         11.1321    15.2095   -11.5357 CH2           1 RES     
     398 CH2         10.7974    14.5833   -12.9022 CH2           1 RES     
     399 CH2         11.9899    14.7693   -13.8588 CH2           1 RES     
     400 CH2         11.6551    14.1430   -15.2253 CH2           1 RES     
     401 CH2         12.8476    14.3290   -16.1820 CH2           1 RES     
     402 CH2         12.5129    13.7028   -17.5485 CH2           1 RES     
     403 CH2         13.7053    13.8888   -18.5051 CH2           1 RES     
     404 CH2         13.3706    13.2625   -19.8716 CH2           1 RES     
     405 CH2         14.5630    13.4485   -20.8282 CH2           1 RES     
     406 CH2         14.2283    12.8222   -22.1948 CH2           1 RES     
     407 CH2         15.4207    13.0082   -23.1514 CH2           1 RES     
     408 CH2         15.0860    12.3820   -24.5179 CH2           1 RES     
     409 CH2         16.2784    12.5680   -25.4745 CH2           1 RES     
     410 CH2         15.9437    11.9417   -26.8411 CH2           1 RES     
     411 CH3         17.0820    12.1193   -27.7542 CH3           1 RES     
     412 CH2          7.6098    14.2990    -7.4874 CH2           1 RES     
     413 OE           6.4204    13.7106    -6.8682 OE            1 RES     
     414 C            5.8144    13.1040    -8.0990 C             1 RES     
     415 O            4.7605    12.4702    -8.1168 O             1 RES     
     416 CH2          6.8220    13.2760    -9.0633 CH2           1 RES     
     417 CH2          6.2426    12.5285   -10.2787 CH2           1 RES     
     418 CH2          7.3022    12.4621   -11.3943 CH2           1 RES     
     419 CH2          6.7227    11.7147   -12.6097 CH2           1 RES     
     420 CH2          7.7823    11.6483   -13.7253 CH2           1 RES     
     421 CH2          7.2029    10.9008   -14.9407 CH2           1 RES     
     422 CH2          8.2624    10.8344   -16.0563 CH2           1 RES     
     423 CH2          7.6830    10.0870   -17.2717 CH2           1 RES     
     424 CH2          8.7426    10.0206   -18.3873 CH2           1 RES     
     425 CH2          8.1632     9.2732   -19.6028 CH2           1 RES     
     426 CH2          9.2227     9.2067   -20.7183 CH2           1 RES     
     427 CH2          8.6433     8.4593   -21.9338 CH2           1 RES     
     428 CH2          9.7028     8.3929   -23.0494 CH2           1 RES     
     429 CH2          9.1234     7.6455   -24.2648 CH2           1 RES     
     430 CH2         10.1830     7.5791   -25.3804 CH2           1 RES     
     431 CH2          9.6036     6.8316   -26.5958 CH2           1 RES     
     432 CH3         10.6149     6.7682   -27.6607 CH3           1 RES     
     433 CH3         27.3861     5.4772     0.0000 CH3           1 RES     
     434 CH3         26.3171     6.5732     1.7858 CH3           1 RES     
     435 CH3         28.4126     6.9729     1.3040 CH3           1 RES     
     436 NL          27.2298     6.6459     0.8091 NL            1 RES     
     437 CH2         26.9545     7.7226    -0.0295 CH2           1 RES     
     438 CH2         25.5784     7.3115    -0.5853 CH2           1 RES     
     439 OA          25.1084     9.0766    -4.0374 OA            1 RES     
     440 P           25.6127     7.9753    -2.9920 P             1 RES     
     441 OM          24.9721     6.5807    -3.4442 OM            1 RES     
     442 OM          27.2121     8.0112    -3.0178 OM            1 RES     
     443 OA          25.0928     8.3525    -1.5265 OA            1 RES     
     444 CH2         25.6082     8.6951    -5.3827 CH2           1 RES     
     445 CH1         25.1414     9.7348    -6.4184 CH1           1 RES     
     446 OE          26.3137    10.3488    -7.0584 OE            1 RES     
     447 C           25.9068     9.8877    -8.4265 C             1 RES     
     448 O           24.8939     9.2332    -8.6685 O             1 RES     
     449 CH2         27.0268    10.2079    -9.2125 CH2           1 RES     
     450 CH2         26.6503     9.6059   -10.5790 CH2           1 RES     
     451 CH2         27.8526     9.7104   -11.5357 CH2           1 RES     
     452 CH2         27.4761     9.1083   -12.9022 CH2           1 RES     
     453 CH2         28.6784     9.2129   -13.8588 CH2           1 RES     
     454 CH2         28.3019     8.6108   -15.2253 CH2           1 RES     
     455 CH2         29.5042     8.7153   -16.1820 CH2           1 RES     
     456 CH2         29.1277     8.1133   -17.5485 CH2           1 RES     
     457 CH2         30.3300     8.2178   -18.5051 CH2           1 RES     
     458 CH2         29.9535     7.6157   -19.8716 CH2           1 RES     
     459 CH2         31.1558     7.7203   -20.8282 CH2           1 RES     
     460 CH2         30.7793     7.1182   -22.1948 CH2           1 RES     
     461 CH2         31.9817     7.2227   -23.1514 CH2           1 RES     
     462 CH2         31.6052     6.6207   -24.5179 CH2           1 RES     
     463 CH2         32.8075     6.7252   -25.4745 CH2           1 RES     
     464 CH2         32.4310     6.1231   -26.8411 CH2           1 RES     
     465 CH3         33.5786     6.2229   -27.7542 CH3           1 RES     
     466 CH2         24.2765     9.0414    -7.4874 CH2           1 RES     
     467 OE          23.0498     8.5351    -6.8682 OE            1 RES     
     468 C           22.4041     7.9712    -8.0990 C             1 RES     
     469 O           21.3095     7.4104    -8.1168 O             1 RES     
     470 CH2         23.4210     8.0742    -9.0633 CH2           1 RES     
     471 CH2         22.7922     7.3679   -10.2787 CH2           1 RES     
     472 CH2         23.8447     7.2296   -11.3943 CH2           1 RES     
     473 CH2         23.2159     6.5233   -12.6097 CH2           1 RES     
     474 CH2         24.2685     6.3850   -13.7253 CH2           1 RES     
     475 CH2         23.6396     5.6787   -14.9407 CH2           1 RES     
     476 CH2         24.6922     5.5404   -16.0563 CH2           1 RES     
     477 CH2         24.0633     4.8341   -17.2717 CH2           1 RES     
     478 CH2         25.1159     4.6958   -18.3873 CH2           1 RES     
     479 CH2         24.4870     3.9895   -19.6028 CH2           1 RES     
     480 CH2         25.5396     3.8512   -20.7183 CH2           1 RES     
     481 CH2         24.9107     3.1449   -21.9338 CH2           1 RES     
     482 CH2         25.9633     3.0067   -23.0494 CH2           1 RES     
     483 CH2         25.3344     2.3003   -24.2648 CH2           1 RES     
     484 CH2         26.3870     2.1621   -25.3804 CH2           1 RES     
     485 CH2         25.7582     1.4557   -26.5958 CH2           1 RES     
     486 CH3         26.7629     1.3238   -27.6607 CH3           1 RES     
     487 CH3         16.4317    21.9089     0.0000 CH3           1 RES     
     488 CH3         15.3838    23.0251     1.7858 CH3           1 RES     
     489 CH3         17.4865    23.3848     1.3040 CH3           1 RES     
     490 NL          16.2977    23.0803     0.8091 NL            1 RES     
     491 CH2         16.0430    24.1621    -0.0295 CH2           1 RES     
     492 CH2         14.6593    23.7773    -0.5853 CH2           1 RES     
     493 OA          14.2230    25.5511    -4.0374 OA            1 RES     
     494 P           14.7062    24.4404    -2.9920 P             1 RES     
     495 OM          14.0391    23.0582    -3.4442 OM            1 RES     
     496 OM          16.3060    24.4457    -3.0178 OM            1 RES     
     497 OA          14.1936    24.8274    -1.5265 OA            1 RES     
     498 CH2         14.7155    25.1601    -5.3827 CH2           1 RES     
     499 CH1         14.2686    26.2085    -6.4184 CH1           1 RES     
     500 OE          15.4524    26.8001    -7.0584 OE            1 RES     
     501 C           15.0368    26.3468    -8.4265 C             1 RES     
     502 O           14.0116    25.7117    -8.6685 O             1 RES     
     503 CH2         16.1626    26.6456    -9.2125 CH2           1 RES     
     504 CH2         15.7747    26.0508   -10.5790 CH2           1 RES     
     505 CH2         16.9788    26.1324   -11.5357 CH2           1 RES     
     506 CH2         16.5909    25.5376   -12.9022 CH2           1 RES     
     507 CH2         17.7950    25.6192   -13.8588 CH2           1 RES     
     508 CH2         17.4070    25.0244   -15.2253 CH2           1 RES     
     509 CH2         18.6111    25.1060   -16.1820 CH2           1 RES     
     510 CH2         18.2232    24.5113   -17.5485 CH2           1 RES     
     511 CH2         19.4273    24.5928   -18.5051 CH2           1 RES     
     512 CH2         19.0394    23.9981   -19.8716 CH2           1 RES     
     513 CH2         20.2435    24.0796   -20.8282 CH2           1 RES     
     514 CH2         19.8556    23.4849   -22.1948 CH2           1 RES     
     515 CH2         21.0597    23.5664   -23.1514 CH2           1 RES     
     516 CH2         20.6717    22.9717   -24.5179 CH2           1 RES     
     517 CH2         21.8758    23.0533   -25.4745 CH2           1 RES     
     518 CH2         21.4879    22.4585   -26.8411 CH2           1 RES     
     519 CH3         22.6373    22.5364   -27.7542 CH3           1 RES     
     520 CH2         13.3906    25.5317    -7.4874 CH2           1 RES     
     521 OE          12.1545    25.0489    -6.8682 OE            1 RES     
     522 C           11.4981    24.4974    -8.0990 C             1 RES     
     523 O           10.3930    23.9576    -8.1168 O             1 RES     
     524 CH2         12.5168    24.5810    -9.0633 CH2           1 RES     
     525 CH2         11.8746    23.8868   -10.2787 CH2           1 RES     
     526 CH2         12.9244    23.7285   -11.3943 CH2           1 RES     
     527 CH2         12.2821    23.0343   -12.6097 CH2           1 RES     
     528 CH2         13.3319    22.8760   -13.7253 CH2           1 RES     
     529 CH2         12.6897    22.1818   -14.9407 CH2           1 RES     
     530 CH2         13.7394    22.0235   -16.0563 CH2           1 RES     
     531 CH2         13.0972    21.3293   -17.2717 CH2           1 RES     
     532 CH2         14.1469    21.1710   -18.3873 CH2           1 RES     
     533 CH2         13.5047    20.4768   -19.6028 CH2           1 RES     
     534 CH2         14.5545    20.3184   -20.7183 CH2           1 RES     
     535 CH2         13.9122    19.6242   -21.9338 CH2           1 RES     
     536 CH2         14.9620    19.4659   -23.0494 CH2           1 RES     
     537 CH2         14.3198    18.7717   -24.2648 CH2           1 RES     
     538 CH2         15.3695    18.6134   -25.3804 CH2           1 RES     
     539 CH2         14.7273    17.9192   -26.5958 CH2           1 RES     
     540 CH3         15.7293    17.7681   -27.6607 CH3           1 RES     
     541 CH3          0.0000    16.4317     0.0000 CH3           1 RES     
     542 CH3         -0.9016    17.6690     1.7858 CH3           1 RES     
     543 CH3          1.2294    17.7656     1.3040 CH3           1 RES     
     544 NL           0.0121    17.6107     0.8091 NL            1 RES     
     545 CH2         -0.1067    18.7157    -0.0295 CH2           1 RES     
     546 CH2         -1.5274    18.5052    -0.5853 CH2           1 RES     
     547 OA          -1.7407    20.3193    -4.0374 OA            1 RES     
     548 P           -1.3988    19.1573    -2.9920 P             1 RES     
     549 OM          -2.2318    17.8684    -3.4442 OM            1 RES     
     550 OM           0.1894    18.9645    -3.0178 OM            1 RES     
     551 OA          -1.8595    19.6048    -1.5265 OA            1 RES     
     552 CH2         -1.3005    19.8703    -5.3827 CH2           1 RES     
     553 CH1         -1.6141    20.9660    -6.4184 CH1           1 RES     
     554 OE          -0.3662    21.4065    -7.0584 OE            1 RES     
     555 C           -0.8347    21.0082    -8.4265 C             1 RES     
     556 O           -1.9306    20.5049    -8.6685 O             1 RES     
     557 CH2          0.3195    21.1652    -9.2125 CH2           1 RES     
     558 CH2         -0.1391    20.6231   -10.5790 CH2           1 RES     
     559 CH2          1.0658    20.5549   -11.5357 CH2           1 RES     
     560 CH2          0.6073    20.0128   -12.9022 CH2           1 RES     
     561 CH2          1.8122    19.9446   -13.8588 CH2           1 RES     
     562 CH2          1.3536    19.4025   -15.2253 CH2           1 RES     
     563 CH2          2.5585    19.3343   -16.1820 CH2           1 RES     
     564 CH2          2.1000    18.7922   -17.5485 CH2           1 RES     
     565 CH2          3.3049    18.7240   -18.5051 CH2           1 RES     
     566 CH2          2.8463    18.1819   -19.8716 CH2           1 RES     
     567 CH2          4.0512    18.1137   -20.8282 CH2           1 RES     
     568 CH2          3.5927    17.5716   -22.1948 CH2           1 RES     
     569 CH2          4.7976    17.5034   -23.1514 CH2           1 RES     
     570 CH2          4.3390    16.9613   -24.5179 CH2           1 RES     
     571 CH2          5.5439    16.8931   -25.4745 CH2           1 RES     
     572 CH2          5.0854    16.3510   -26.8411 CH2           1 RES     
     573 CH3          6.2355    16.2859   -27.7542 CH3           1 RES     
     574 CH2         -2.5691    20.4032    -7.4874 CH2           1 RES     
     575 OE          -3.8555    20.0771    -6.8682 OE            1 RES     
     576 C           -4.5751    19.6111    -8.0990 C             1 RES     
     577 O           -5.7386    19.2123    -8.1168 O             1 RES     
     578 CH2         -3.5539    19.5680    -9.0633 CH2           1 RES     
     579 CH2         -4.2771    18.9586   -10.2787 CH2           1 RES     
     580 CH2         -3.2550    18.6715   -11.3943 CH2           1 RES     
     581 CH2         -3.9783    18.0622   -12.6097 CH2           1 RES     
     582 CH2         -2.9562    17.7751   -13.7253 CH2           1 RES     
     583 CH2         -3.6794    17.1658   -14.9407 CH2           1 RES     
     584 CH2         -2.6574    16.8787   -16.0563 CH2           1 RES     
     585 CH2         -3.3806    16.2694   -17.2717 CH2           1 RES     
     586 CH2         -2.3585    15.9823   -18.3873 CH2           1 RES     
     587 CH2         -3.0818    15.3730   -19.6028 CH2           1 RES     
     588 CH2         -2.0597    15.0859   -20.7183 CH2           1 RES     
     589 CH2         -2.7829    14.4765   -21.9338 CH2           1 RES     
     590 CH2         -1.7609    14.1895   -23.0494 CH2           1 RES     
     591 CH2         -2.4841    13.5801   -24.2648 CH2           1 RES     
     592 CH2         -1.4620    13.2930   -25.3804 CH2           1 RES     
     593 CH2         -2.1852    12.6837   -26.5958 CH2           1 RES     
     594 CH3         -1.2096    12.4097   -27.6607 CH3           1 RES     
     595 CH3         21.9089    27.3861     0.0000 CH3           1 RES     
     596 CH3         20.9732    28.5979     1.7858 CH3           1 RES     
     597 CH3         23.1007    28.7537     1.3040 CH3           1 RES     
     598 NL          21.8882    28.5650     0.8091 NL            1 RES     
     599 CH2         21.7386    29.6663    -0.0295 CH2           1 RES     
     600 CH2         20.3243    29.4163    -0.5853 CH2           1 RES     
     601 OA          20.0607    31.2238    -4.0374 OA            1 RES     
     602 P           20.4348    30.0718    -2.9920 P             1 RES     
     603 OM          19.6379    28.7601    -3.4442 OM            1 RES     
     604 OM          22.0277    29.9233    -3.0178 OM            1 RES     
     605 OA          19.9618    30.5062    -1.5265 OA            1 RES     
     606 CH2         20.5132    30.7872    -5.3827 CH2           1 RES     
     607 CH1         20.1692    31.8738    -6.4184 CH1           1 RES     
     608 OE          21.4044    32.3488    -7.0584 OE            1 RES     
     609 C           20.9471    31.9376    -8.4265 C             1 RES     
     610 O           19.8656    31.4040    -8.6685 O             1 RES     
     611 CH2         22.0965    32.1268    -9.2125 CH2           1 RES     
     612 CH2         21.6532    31.5720   -10.5790 CH2           1 RES     
     613 CH2         22.8595    31.5375   -11.5357 CH2           1 RES     
     614 CH2         22.4162    30.9828   -12.9022 CH2           1 RES     
     615 CH2         23.6226    30.9482   -13.8588 CH2           1 RES     
     616 CH2         23.1793    30.3935   -15.2253 CH2           1 RES     
     617 CH2         24.3856    30.3589   -16.1820 CH2           1 RES     
     618 CH2         23.9423    29.8042   -17.5485 CH2           1 RES     
     619 CH2         25.1487    29.7696   -18.5051 CH2           1 RES     
     620 CH2         24.7054    29.2149   -19.8716 CH2           1 RES     
     621 CH2         25.9117    29.1803   -20.8282 CH2           1 RES     
     622 CH2         25.4685    28.6256   -22.1948 CH2           1 RES     
     623 CH2         26.6748    28.5910   -23.1514 CH2           1 RES     
     624 CH2         26.2315    28.0363   -24.5179 CH2           1 RES     
     625 CH2         27.4379    28.0018   -25.4745 CH2           1 RES     
     626 CH2         26.9946    27.4470   -26.8411 CH2           1 RES     
     627 CH3         28.1461    27.4140   -27.7542 CH3           1 RES     
     628 CH2         19.2302    31.2845    -7.4874 CH2           1 RES     
     629 OE          17.9534    30.9228    -6.8682 OE            1 RES     
     630 C           17.2470    30.4370    -8.0990 C             1 RES     
     631 O           16.0952    30.0059    -8.1168 O             1 RES     
     632 CH2         18.2691    30.4223    -9.0633 CH2           1 RES     
     633 CH2         17.5631    29.7930   -10.2787 CH2           1 RES     
     634 CH2         18.5928    29.5345   -11.3943 CH2           1 RES     
     635 CH2         17.8868    28.9053   -12.6097 CH2           1 RES     
     636 CH2         18.9164    28.6468   -13.7253 CH2           1 RES     
     637 CH2         18.2105    28.0175   -14.9407 CH2           1 RES     
     638 CH2         19.2401    27.7590   -16.0563 CH2           1 RES     
     639 CH2         18.5341    27.1298   -17.2717 CH2           1 RES     
     640 CH2         19.5638    26.8713   -18.3873 CH2           1 RES     
     641 CH2         18.8578    26.2420   -19.6028 CH2           1 RES     
     642 CH2         19.8875    25.9835   -20.7183 CH2           1 RES     
     643 CH2         19.1815    25.3543   -21.9338 CH2           1 RES     
     644 CH2         20.2112    25.0958   -23.0494 CH2           1 RES     
     645 CH2         19.5052    24.4665   -24.2648 CH2           1 RES     
     646 CH2         20.5348    24.2080   -25.3804 CH2           1 RES     
     647 CH2         19.8288    23.5788   -26.5958 CH2           1 RES     
     648 CH3         20.8117    23.3320   -27.6607 CH3           1 RES     
     649 CH3         10.9545    21.9089     0.0000 CH3           1 RES     
     650 CH3          9.6129    22.6466     1.7858 CH3           1 RES     
     651 CH3         11.5015    23.6385     1.3040 CH3           1 RES     
     652 NL          10.4650    22.9816     0.8091 NL            1 RES     
     653 CH2          9.8884    23.9317    -0.0295 CH2           1 RES     
     654 CH2          8.6914    23.1381    -0.5853 CH2           1 RES     
     655 OA           7.7283    24.6902    -4.0374 OA            1 RES     
     656 P            8.5311    23.7832    -2.9920 P             1 RES     
     657 OM           8.3238    22.2625    -3.4442 OM            1 RES     
     658 OM          10.0509    24.2827    -3.0178 OM            1 RES     
     659 OA           7.9240    23.9928    -1.5265 OA            1 RES     
     660 CH2          8.3175    24.4705    -5.3827 CH2           1 RES     
     661 CH1          7.5685    25.3295    -6.4184 CH1           1 RES     
     662 OE           8.5115    26.2580    -7.0584 OE            1 RES     
     663 C            8.2563    25.6985    -8.4265 C             1 RES     
     664 O            7.4776    24.7776    -8.6685 O             1 RES     
     665 CH2          9.2347    26.3306    -9.2125 CH2           1 RES     
     666 CH2          9.0496    25.6450   -10.5790 CH2           1 RES     
     667 CH2         10.1695    26.0947   -11.5357 CH2           1 RES     
     668 CH2          9.9844    25.4092   -12.9022 CH2           1 RES     
     669 CH2         11.1043    25.8589   -13.8588 CH2           1 RES     
     670 CH2         10.9192    25.1734   -15.2253 CH2           1 RES     
     671 CH2         12.0392    25.6231   -16.1820 CH2           1 RES     
     672 CH2         11.8540    24.9375   -17.5485 CH2           1 RES     
     673 CH2         12.9740    25.3872   -18.5051 CH2           1 RES     
     674 CH2         12.7889    24.7017   -19.8716 CH2           1 RES     
     675 CH2         13.9088    25.1514   -20.8282 CH2           1 RES     
     676 CH2         13.7237    24.4659   -22.1948 CH2           1 RES     
     677 CH2         14.8436    24.9156   -23.1514 CH2           1 RES     
     678 CH2         14.6585    24.2300   -24.5179 CH2           1 RES     
     679 CH2         15.7784    24.6797   -25.4745 CH2           1 RES     
     680 CH2         15.5933    23.9942   -26.8411 CH2           1 RES     
     681 CH3         16.6623    24.4235   -27.7542 CH3           1 RES     
     682 CH2          6.9426    24.4145    -7.4874 CH2           1 RES     
     683 OE           5.9162    23.5734    -6.8682 OE            1 RES     
     684 C            5.4624    22.8460    -8.0990 C             1 RES     
     685 O            4.5782    21.9911    -8.1168 O             1 RES     
     686 CH2          6.4054    23.2403    -9.0633 CH2           1 RES     
     687 CH2          6.0092    22.3817   -10.2787 CH2           1 RES     
     688 CH2          7.0565    22.5555   -11.3943 CH2           1 RES     
     689 CH2          6.6602    21.6968   -12.6097 CH2           1 RES     
     690 CH2          7.7075    21.8707   -13.7253 CH2           1 RES     
     691 CH2          7.3113    21.0120   -14.9407 CH2           1 RES     
     692 CH2          8.3586    21.1858   -16.0563 CH2           1 RES     
     693 CH2          7.9623    20.3271   -17.2717 CH2           1 RES     
     694 CH2          9.0096    20.5010   -18.3873 CH2           1 RES     
     695 CH2          8.6134    19.6423   -19.6028 CH2           1 RES     
     696 CH2          9.6607    19.8161   -20.7183 CH2           1 RES     
     697 CH2          9.2644    18.9575   -21.9338 CH2           1 RES     
     698 CH2         10.3117    19.1313   -23.0494 CH2           1 RES     
     699 CH2          9.9155    18.2726   -24.2648 CH2           1 RES     
     700 CH2         10.9628    18.4465   -25.3804 CH2           1 RES     
     701 CH2         10.5665    17.5878   -26.5958 CH2           1 RES     
     702 CH3         11.5662    17.7537   -27.6607 CH3           1 RES     
     703 CH3         32.8634     0.0000     0.0000 CH3           1 RES     
     704 CH3         31.6174     0.8897     1.7858 CH3           1 RES     
     705 CH3         33.6091     1.6537     1.3040 CH3           1 RES     
     706 NL          32.5028     1.1226     0.8091 NL            1 RES     
     707 CH2         32.0414     2.1337    -0.0295 CH2           1 RES     
     708 CH2         30.7597     1.4856    -0.5853 CH2           1 RES     
     709 OA          29.9850     3.1398    -4.0374 OA            1 RES     
     710 P           30.6760     2.1451    -2.9920 P             1 RES     
     711 OM          30.2922     0.6591    -3.4442 OM            1 RES     
     712 OM          32.2439     2.4632    -3.0178 OM            1 RES     
     713 OA          30.0977     2.4243    -1.5265 OA            1 RES     
     714 CH2         30.5444     2.8527    -5.3827 CH2           1 RES     
     715 CH1         29.9011     3.7934    -6.4184 CH1           1 RES     
     716 OE          30.9463     4.6052    -7.0584 OE            1 RES     
     717 C           30.6273     4.0793    -8.4265 C             1 RES     
     718 O           29.7462     3.2560    -8.6685 O             1 RES     
     719 CH2         31.6730     4.5926    -9.2125 CH2           1 RES     
     720 CH2         31.4089     3.9334   -10.5790 CH2           1 RES     
     721 CH2         32.5738     4.2489   -11.5357 CH2           1 RES     
     722 CH2         32.3097     3.5898   -12.9022 CH2           1 RES     
     723 CH2         33.4746     3.9053   -13.8588 CH2           1 RES     
     724 CH2         33.2105     3.2461   -15.2253 CH2           1 RES     
     725 CH2         34.3754     3.5617   -16.1820 CH2           1 RES     
     726 CH2         34.1113     2.9025   -17.5485 CH2           1 RES     
     727 CH2         35.2761     3.2180   -18.5051 CH2           1 RES     
     728 CH2         35.0121     2.5589   -19.8716 CH2           1 RES     
     729 CH2         36.1769     2.8744   -20.8282 CH2           1 RES     
     730 CH2         35.9129     2.2152   -22.1948 CH2           1 RES     
     731 CH2         37.0777     2.5308   -23.1514 CH2           1 RES     
     732 CH2         36.8136     1.8716   -24.5179 CH2           1 RES     
     733 CH2         37.9785     2.1871   -25.4745 CH2           1 RES     
     734 CH2         37.7144     1.5280   -26.8411 CH2           1 RES     
     735 CH3         38.8263     1.8291   -27.7542 CH3           1 RES     
     736 CH2         29.1724     2.9580    -7.4874 CH2           1 RES     
     737 OE          28.0546     2.2428    -6.8682 OE            1 RES     
     738 C           27.5188     1.5735    -8.0990 C             1 RES     
     739 O           26.5406     0.8280    -8.1168 O             1 RES     
     740 CH2         28.5015     1.8548    -9.0633 CH2           1 RES     
     741 CH2         28.0074     1.0484   -10.2787 CH2           1 RES     
     742 CH2         29.0679     1.0984   -11.3943 CH2           1 RES     
     743 CH2         28.5738     0.2920   -12.6097 CH2           1 RES     
     744 CH2         29.6343     0.3421   -13.7253 CH2           1 RES     
     745 CH2         29.1402    -0.4643   -14.9407 CH2           1 RES     
     746 CH2         30.2007    -0.4142   -16.0563 CH2           1 RES     
     747 CH2         29.7067    -1.2206   -17.2717 CH2           1 RES     
     748 CH2         30.7671    -1.1706   -18.3873 CH2           1 RES     
     749 CH2         30.2731    -1.9770   -19.6028 CH2           1 RES     
     750 CH2         31.3335    -1.9269   -20.7183 CH2           1 RES     
     751 CH2         30.8395    -2.7333   -21.9338 CH2           1 RES     
     752 CH2         31.8999    -2.6833   -23.0494 CH2           1 RES     
     753 CH2         31.4059    -3.4897   -24.2648 CH2           1 RES     
     754 CH2         32.4663    -3.4396   -25.3804 CH2           1 RES     
     755 CH2         31.9723    -4.2460   -26.5958 CH2           1 RES     
     756 CH3         32.9845    -4.1982   -27.6607 CH3           1 RES     
     757 CH3         38.3406    27.3861     0.0000 CH3           1 RES     
     758 CH3         37.2656    28.4763     1.7858 CH3           1 RES     
     759 CH3         39.3589    28.8874     1.3040 CH3           1 RES     
     760 NL          38.1779    28.5539     0.8091 NL            1 RES     
     761 CH2         37.8967    29.6291    -0.0295 CH2           1 RES     
     762 CH2         36.5229    29.2105    -0.5853 CH2           1 RES     
     763 OA          36.0432    30.9730    -4.0374 OA            1 RES     
     764 P           36.5535    29.8745    -2.9920 P             1 RES     
     765 OM          35.9205    28.4764    -3.4442 OM            1 RES     
     766 OM          38.1527    29.9191    -3.0178 OM            1 RES     
     767 OA          36.0316    30.2488    -1.5265 OA            1 RES     
     768 CH2         36.5451    30.5942    -5.3827 CH2           1 RES     
     769 CH1         36.0727    31.6313    -6.4184 CH1           1 RES     
     770 OE          37.2416    32.2518    -7.0584 OE            1 RES     
     771 C           36.8372    31.7885    -8.4265 C             1 RES     
     772 O           35.8279    31.1284    -8.6685 O             1 RES     
     773 CH2         37.9554    32.1148    -9.2125 CH2           1 RES     
     774 CH2         37.5822    31.5107   -10.5790 CH2           1 RES     
     775 CH2         38.7839    31.6218   -11.5357 CH2           1 RES     
     776 CH2         38.4107    31.0177   -12.9022 CH2           1 RES     
     777 CH2         39.6124    31.1288   -13.8588 CH2           1 RES     
     778 CH2         39.2392    30.5247   -15.2253 CH2           1 RES     
     779 CH2         40.4409    30.6358   -16.1820 CH2           1 RES     
     780 CH2         40.0677    30.0317   -17.5485 CH2           1 RES     
     781 CH2         41.2695    30.1427   -18.5051 CH2           1 RES     
     782 CH2         40.8963    29.5386   -19.8716 CH2           1 RES     
     783 CH2         42.0980    29.6497   -20.8282 CH2           1 RES     
     784 CH2         41.7248    29.0456   -22.1948 CH2           1 RES     
     785 CH2         42.9265    29.1567   -23.1514 CH2           1 RES     
     786 CH2         42.5533    28.5526   -24.5179 CH2           1 RES     
     787 CH2         43.7550    28.6637   -25.4745 CH2           1 RES     
     788 CH2         43.3818    28.0596   -26.8411 CH2           1 RES     
     789 CH3         44.5289    28.1657   -27.7542 CH3           1 RES     
     790 CH2         35.2115    30.9332    -7.4874 CH2           1 RES     
     791 OE          33.9876    30.4203    -6.8682 OE            1 RES     
     792 C           33.3450    29.8528    -8.0990 C             1 RES     
     793 O           32.2534    29.2861    -8.1168 O             1 RES     
     794 CH2         34.3613    29.9614    -9.0633 CH2           1 RES     
     795 CH2         33.7363    29.2517   -10.2787 CH2           1 RES     
     796 CH2         34.7897    29.1191   -11.3943 CH2           1 RES     
     797 CH2         34.1647    28.4094   -12.6097 CH2           1 RES     
     798 CH2         35.2180    28.2769   -13.7253 CH2           1 RES     
     799 CH2         34.5930    27.5671   -14.9407 CH2           1 RES     
     800 CH2         35.6463    27.4346   -16.0563 CH2           1 RES     
     801 CH2         35.0213    26.7249   -17.2717 CH2           1 RES     
     802 CH2         36.0746    26.5923   -18.3873 CH2           1 RES     
     803 CH2         35.4496    25.8826   -19.6028 CH2           1 RES     
     804 CH2         36.5030    25.7501   -20.7183 CH2           1 RES     
     805 CH2         35.8780    25.0403   -21.9338 CH2           1 RES     
     806 CH2         36.9313    24.9078   -23.0494 CH2           1 RES     
     807 CH2         36.3063    24.1981   -24.2648 CH2           1 RES     
     808 CH2         37.3596    24.0656   -25.3804 CH2           1 RES     
     809 CH2         36.7346    23.3558   -26.5958 CH2           1 RES     
     810 CH3         37.7401    23.2293   -27.6607 CH3           1 RES     
     811 CH3         10.9545    27.3861     0.0000 CH3           1 RES     
     812 CH3         10.0211    28.5997     1.7858 CH3           1 RES     
     813 CH3         12.1489    28.7514     1.3040 CH3           1 RES     
     814 NL          10.9360    28.5651     0.8091 NL            1 RES     
     815 CH2         10.7886    29.6666    -0.0295 CH2           1 RES     
     816 CH2          9.3738    29.4194    -0.5853 CH2           1 RES     
     817 OA           9.1136    31.2273    -4.0374 OA            1 RES     
     818 P            9.4856    30.0746    -2.9920 P             1 RES     
     819 OM           8.6861    28.7645    -3.4442 OM            1 RES     
     820 OM          11.0781    29.9230    -3.0178 OM            1 RES     
     821 OA           9.0134    30.5100    -1.5265 OA            1 RES     
     822 CH2          9.5654    30.7899    -5.3827 CH2           1 RES     
     823 CH1          9.2235    31.8771    -6.4184 CH1           1 RES     
     824 OE          10.4596    32.3498    -7.0584 OE            1 RES     
     825 C           10.0015    31.9394    -8.4265 C             1 RES     
     826 O            8.9190    31.4080    -8.6685 O             1 RES     
     827 CH2         11.1512    32.1264    -9.2125 CH2           1 RES     
     828 CH2         10.7069    31.5725   -10.5790 CH2           1 RES     
     829 CH2         11.9131    31.5356   -11.5357 CH2           1 RES     
     830 CH2         11.4688    30.9818   -12.9022 CH2           1 RES     
     831 CH2         12.6750    30.9449   -13.8588 CH2           1 RES     
     832 CH2         12.2307    30.3910   -15.2253 CH2           1 RES     
     833 CH2         13.4369    30.3541   -16.1820 CH2           1 RES     
     834 CH2         12.9926    29.8002   -17.5485 CH2           1 RES     
     835 CH2         14.1989    29.7633   -18.5051 CH2           1 RES     
     836 CH2         13.7545    29.2095   -19.8716 CH2           1 RES     
     837 CH2         14.9608    29.1726   -20.8282 CH2           1 RES     
     838 CH2         14.5164    28.6187   -22.1948 CH2           1 RES     
     839 CH2         15.7227    28.5818   -23.1514 CH2           1 RES     
     840 CH2         15.2783    28.0280   -24.5179 CH2           1 RES     
     841 CH2         16.4846    27.9910   -25.4745 CH2           1 RES     
     842 CH2         16.0402    27.4372   -26.8411 CH2           1 RES     
     843 CH3         17.1917    27.4020   -27.7542 CH3           1 RES     
     844 CH2          8.2833    31.2897    -7.4874 CH2           1 RES     
     845 OE           7.0058    30.9305    -6.8682 OE            1 RES     
     846 C            6.2985    30.4460    -8.0990 C             1 RES     
     847 O            5.1458    30.0172    -8.1168 O             1 RES     
     848 CH2          7.3205    30.4293    -9.0633 CH2           1 RES     
     849 CH2          6.6133    29.8014   -10.2787 CH2           1 RES     
     850 CH2          7.6425    29.5409   -11.3943 CH2           1 RES     
     851 CH2          6.9353    28.9131   -12.6097 CH2           1 RES     
     852 CH2          7.9644    28.6526   -13.7253 CH2           1 RES     
     853 CH2          7.2572    28.0247   -14.9407 CH2           1 RES     
     854 CH2          8.2864    27.7642   -16.0563 CH2           1 RES     
     855 CH2          7.5792    27.1363   -17.2717 CH2           1 RES     
     856 CH2          8.6084    26.8758   -18.3873 CH2           1 RES     
     857 CH2          7.9012    26.2479   -19.6028 CH2           1 RES     
     858 CH2          8.9303    25.9874   -20.7183 CH2           1 RES     
     859 CH2          8.2231    25.3596   -21.9338 CH2           1 RES     
     860 CH2          9.2523    25.0991   -23.0494 CH2           1 RES     
     861 CH2          8.5451    24.4712   -24.2648 CH2           1 RES     
     862 CH2          9.5742    24.2107   -25.3804 CH2           1 RES     
     863 CH2          8.8670    23.5828   -26.5958 CH2           1 RES     
     864 CH3          9.8494    23.3341   -27.6607 CH3           1 RES     
     865 CH3         32.8634    38.3406     0.0000 CH3           1 RES     
     866 CH3         31.6619    39.2895     1.7858 CH3           1 RES     
     867 CH3         33.6883    39.9562     1.3040 CH3           1 RES     
     868 NL          32.5576    39.4793     0.8091 NL            1 RES     
     869 CH2         32.1457    40.5115    -0.0295 CH2           1 RES     
     870 CH2         30.8341    39.9264    -0.5853 CH2           1 RES     
     871 OA          30.1404    41.6161    -4.0374 OA            1 RES     
     872 P           30.7825    40.5891    -2.9920 P             1 RES     
     873 OM          30.3271    39.1234    -3.4442 OM            1 RES     
     874 OM          32.3639    40.8309    -3.0178 OM            1 RES     
     875 OA          30.2183    40.8960    -1.5265 OA            1 RES     
     876 CH2         30.6852    41.3022    -5.3827 CH2           1 RES     
     877 CH1         30.0882    42.2730    -6.4184 CH1           1 RES     
     878 OE          31.1715    43.0332    -7.0584 OE            1 RES     
     879 C           30.8275    42.5234    -8.4265 C             1 RES     
     880 O           29.9075    41.7437    -8.6685 O             1 RES     
     881 CH2         31.8968    42.9854    -9.2125 CH2           1 RES     
     882 CH2         31.6011    42.3398   -10.5790 CH2           1 RES     
     883 CH2         32.7799    42.5986   -11.5357 CH2           1 RES     
     884 CH2         32.4842    41.9530   -12.9022 CH2           1 RES     
     885 CH2         33.6630    42.2117   -13.8588 CH2           1 RES     
     886 CH2         33.3673    41.5661   -15.2253 CH2           1 RES     
     887 CH2         34.5461    41.8248   -16.1820 CH2           1 RES     
     888 CH2         34.2504    41.1793   -17.5485 CH2           1 RES     
     889 CH2         35.4292    41.4380   -18.5051 CH2           1 RES     
     890 CH2         35.1335    40.7924   -19.8716 CH2           1 RES     
     891 CH2         36.3122    41.0511   -20.8282 CH2           1 RES     
     892 CH2         36.0165    40.4055   -22.1948 CH2           1 RES     
     893 CH2         37.1953    40.6643   -23.1514 CH2           1 RES     
     894 CH2         36.8996    40.0187   -24.5179 CH2           1 RES     
     895 CH2         38.0784    40.2774   -25.4745 CH2           1 RES     
     896 CH2         37.7827    39.6318   -26.8411 CH2           1 RES     
     897 CH3         38.9079    39.8788   -27.7542 CH3           1 RES     
     898 CH2         29.3199    41.4739    -7.4874 CH2           1 RES     
     899 OE          28.1688    40.8136    -6.8682 OE            1 RES     
     900 C           27.6012    40.1710    -8.0990 C             1 RES     
     901 O           26.5881    39.4738    -8.1168 O             1 RES     
     902 CH2         28.5964    40.4044    -9.0633 CH2           1 RES     
     903 CH2         28.0639    39.6229   -10.2787 CH2           1 RES     
     904 CH2         29.1255    39.6215   -11.3943 CH2           1 RES     
     905 CH2         28.5930    38.8400   -12.6097 CH2           1 RES     
     906 CH2         29.6546    38.8386   -13.7253 CH2           1 RES     
     907 CH2         29.1221    38.0571   -14.9407 CH2           1 RES     
     908 CH2         30.1837    38.0558   -16.0563 CH2           1 RES     
     909 CH2         29.6512    37.2742   -17.2717 CH2           1 RES     
     910 CH2         30.7129    37.2729   -18.3873 CH2           1 RES     
     911 CH2         30.1804    36.4913   -19.6028 CH2           1 RES     
     912 CH2         31.2420    36.4900   -20.7183 CH2           1 RES     
     913 CH2         30.7095    35.7085   -21.9338 CH2           1 RES     
     914 CH2         31.7711    35.7071   -23.0494 CH2           1 RES     
     915 CH2         31.2386    34.9256   -24.2648 CH2           1 RES     
     916 CH2         32.3002    34.9242   -25.3804 CH2           1 RES     
     917 CH2         31.7677    34.1427   -26.5958 CH2           1 RES     
     918 CH3         32.7811    34.1414   -27.6607 CH3           1 RES     
     919 CH3         27.3861     0.0000     0.0000 CH3           1 RES     
     920 CH3         26.0775     0.7946     1.7858 CH3           1 RES     
     921 CH3         28.0070     1.7045     1.3040 CH3           1 RES     
     922 NL          26.9432     1.0927     0.8091 NL            1 RES     
     923 CH2         26.4080     2.0667    -0.0295 CH2           1 RES     
     924 CH2         25.1779     1.3253    -0.5853 CH2           1 RES     
     925 OA          24.2824     2.9173    -4.0374 OA            1 RES     
     926 P           25.0455     1.9766    -2.9920 P             1 RES     
     927 OM          24.7731     0.4663    -3.4442 OM            1 RES     
     928 OM          26.5854     2.4104    -3.0178 OM            1 RES     
     929 OA          24.4480     2.2122    -1.5265 OA            1 RES     
     930 CH2         24.8616     2.6725    -5.3827 CH2           1 RES     
     931 CH1         24.1502     3.5629    -6.4184 CH1           1 RES     
     932 OE          25.1322     4.4500    -7.0584 OE            1 RES     
     933 C           24.8532     3.9020    -8.4265 C             1 RES     
     934 O           24.0357     3.0154    -8.6685 O             1 RES     
     935 CH2         25.8579     4.4914    -9.2125 CH2           1 RES     
     936 CH2         25.6435     3.8145   -10.5790 CH2           1 RES     
     937 CH2         26.7817     4.2157   -11.5357 CH2           1 RES     
     938 CH2         26.5673     3.5387   -12.9022 CH2           1 RES     
     939 CH2         27.7055     3.9399   -13.8588 CH2           1 RES     
     940 CH2         27.4911     3.2630   -15.2253 CH2           1 RES     
     941 CH2         28.6293     3.6641   -16.1820 CH2           1 RES     
     942 CH2         28.4150     2.9872   -17.5485 CH2           1 RES     
     943 CH2         29.5532     3.3884   -18.5051 CH2           1 RES     
     944 CH2         29.3388     2.7114   -19.8716 CH2           1 RES     
     945 CH2         30.4770     3.1126   -20.8282 CH2           1 RES     
     946 CH2         30.2626     2.4357   -22.1948 CH2           1 RES     
     947 CH2         31.4008     2.8369   -23.1514 CH2           1 RES     
     948 CH2         31.1865     2.1599   -24.5179 CH2           1 RES     
     949 CH2         32.3247     2.5611   -25.4745 CH2           1 RES     
     950 CH2         32.1103     1.8841   -26.8411 CH2           1 RES     
     951 CH3         33.1968     2.2671   -27.7542 CH3           1 RES     
     952 CH2         23.4856     2.6756    -7.4874 CH2           1 RES     
     953 OE          22.4240     1.8793    -6.8682 OE            1 RES     
     954 C           21.9394     1.1721    -8.0990 C             1 RES     
     955 O           21.0193     0.3560    -8.1168 O             1 RES     
     956 CH2         22.8985     1.5256    -9.0633 CH2           1 RES     
     957 CH2         22.4657     0.6847   -10.2787 CH2           1 RES     
     958 CH2         23.5195     0.8134   -11.3943 CH2           1 RES     
     959 CH2         23.0868    -0.0275   -12.6097 CH2           1 RES     
     960 CH2         24.1406     0.1013   -13.7253 CH2           1 RES     
     961 CH2         23.7078    -0.7396   -14.9407 CH2           1 RES     
     962 CH2         24.7616    -0.6109   -16.0563 CH2           1 RES     
     963 CH2         24.3288    -1.4518   -17.2717 CH2           1 RES     
     964 CH2         25.3826    -1.3231   -18.3873 CH2           1 RES     
     965 CH2         24.9499    -2.1640   -19.6028 CH2           1 RES     
     966 CH2         26.0037    -2.0353   -20.7183 CH2           1 RES     
     967 CH2         25.5709    -2.8761   -21.9338 CH2           1 RES     
     968 CH2         26.6247    -2.7474   -23.0494 CH2           1 RES     
     969 CH2         26.1919    -3.5883   -24.2648 CH2           1 RES     
     970 CH2         27.2457    -3.4596   -25.3804 CH2           1 RES     
     971 CH2         26.8130    -4.3005   -26.5958 CH2           1 RES     
     972 CH3         27.8189    -4.1776   -27.6607 CH3           1 RES     
     973 CH3          0.0000     0.0000     0.0000 CH3           1 RES     
     974 CH3         -0.9030     1.2364     1.7858 CH3           1 RES     
     975 CH3          1.2280     1.3352     1.3040 CH3           1 RES     
     976 NL           0.0108     1.1790     0.8091 NL            1 RES     
     977 CH2         -0.1092     2.2839    -0.0295 CH2           1 RES     
     978 CH2         -1.5296     2.0719    -0.5853 CH2           1 RES     
     979 OA          -1.7448     3.8857    -4.0374 OA            1 RES     
     980 P           -1.4017     2.7241    -2.9920 P             1 RES     
     981 OM          -2.2334     1.4343    -3.4442 OM            1 RES     
     982 OM           0.1867     2.5331    -3.0178 OM            1 RES     
     983 OA          -1.8629     3.1711    -1.5265 OA            1 RES     
     984 CH2         -1.3041     3.4373    -5.3827 CH2           1 RES     
     985 CH1         -1.6189     4.5326    -6.4184 CH1           1 RES     
     986 OE          -0.3714     4.9744    -7.0584 OE            1 RES     
     987 C           -0.8396     4.5756    -8.4265 C             1 RES     
     988 O           -1.9350     4.0712    -8.6685 O             1 RES     
     989 CH2          0.3144     4.7339    -9.2125 CH2           1 RES     
     990 CH2         -0.1435     4.1913   -10.5790 CH2           1 RES     
     991 CH2          1.0614     4.1244   -11.5357 CH2           1 RES     
     992 CH2          0.6035     3.5818   -12.9022 CH2           1 RES     
     993 CH2          1.8084     3.5149   -13.8588 CH2           1 RES     
     994 CH2          1.3505     2.9722   -15.2253 CH2           1 RES     
     995 CH2          2.5554     2.9054   -16.1820 CH2           1 RES     
     996 CH2          2.0975     2.3627   -17.5485 CH2           1 RES     
     997 CH2          3.3024     2.2959   -18.5051 CH2           1 RES     
     998 CH2          2.8445     1.7532   -19.8716 CH2           1 RES     
     999 CH2          4.0494     1.6864   -20.8282 CH2           1 RES     
    1000 CH2          3.5915     1.1437   -22.1948 CH2           1 RES     
    1001 CH2          4.7965     1.0769   -23.1514 CH2           1 RES     
    1002 CH2          4.3385     0.5342   -24.5179 CH2           1 RES     
    1003 CH2          5.5435     0.4674   -25.4745 CH2           1 RES     
    1004 CH2          5.0855    -0.0753   -26.8411 CH2           1 RES     
    1005 CH3          6.2357    -0.1391   -27.7542 CH3           1 RES     
    1006 CH2         -2.5734     3.9687    -7.4874 CH2           1 RES     
    1007 OE          -3.8594     3.6413    -6.8682 OE            1 RES     
    1008 C           -4.5785     3.1746    -8.0990 C             1 RES     
    1009 O           -5.7415     2.7745    -8.1168 O             1 RES     
    1010 CH2         -3.5572     3.1325    -9.0633 CH2           1 RES     
    1011 CH2         -4.2798     2.5224   -10.2787 CH2           1 RES     
    1012 CH2         -3.2574     2.2364   -11.3943 CH2           1 RES     
    1013 CH2         -3.9800     1.6263   -12.6097 CH2           1 RES     
    1014 CH2         -2.9576     1.3403   -13.7253 CH2           1 RES     
    1015 CH2         -3.6802     0.7302   -14.9407 CH2           1 RES     
    1016 CH2         -2.6578     0.4442   -16.0563 CH2           1 RES     
    1017 CH2         -3.3804    -0.1659   -17.2717 CH2           1 RES     
    1018 CH2         -2.3580    -0.4519   -18.3873 CH2           1 RES     
    1019 CH2         -3.0806    -1.0620   -19.6028 CH2           1 RES     
    1020 CH2         -2.0583    -1.3480   -20.7183 CH2           1 RES     
    1021 CH2         -2.7808    -1.9581   -21.9338 CH2           1 RES     
    1022 CH2         -1.7585    -2.2441   -23.0494 CH2           1 RES     
    1023 CH2         -2.4810    -2.8542   -24.2648 CH2           1 RES     
    1024 CH2         -1.4587    -3.1402   -25.3804 CH2           1 RES     
    1025 CH2         -2.1813    -3.7503   -26.5958 CH2           1 RES     
    1026 CH3         -1.2054    -4.0233   -27.6607 CH3           1 RES     
    1027 CH3         38.3406    10.9545     0.0000 CH3           1 RES     
    1028 CH3         37.0301    11.7460     1.7858 CH3           1 RES     
    1029 CH3         38.9574    12.6604     1.3040 CH3           1 RES     
    1030 NL          37.8951    12.0461     0.8091 NL            1 RES     
    1031 CH2         37.3575    13.0188    -0.0295 CH2           1 RES     
    1032 CH2         36.1293    12.2745    -0.5853 CH2           1 RES     
    1033 OA          35.2300    13.8644    -4.0374 OA            1 RES     
    1034 P           35.9953    12.9256    -2.9920 P             1 RES     
    1035 OM          35.7265    11.4146    -3.4442 OM            1 RES     
    1036 OM          37.5342    13.3630    -3.0178 OM            1 RES     
    1037 OA          35.3972    13.1597    -1.5265 OA            1 RES     
    1038 CH2         35.8098    13.6210    -5.3827 CH2           1 RES     
    1039 CH1         35.0963    14.5097    -6.4184 CH1           1 RES     
    1040 OE          36.0762    15.3991    -7.0584 OE            1 RES     
    1041 C           35.7985    14.8504    -8.4265 C             1 RES     
    1042 O           34.9830    13.9620    -8.6685 O             1 RES     
    1043 CH2         36.8018    15.4423    -9.2125 CH2           1 RES     
    1044 CH2         36.5890    14.7648   -10.5790 CH2           1 RES     
    1045 CH2         37.7262    15.1687   -11.5357 CH2           1 RES     
    1046 CH2         37.5134    14.4912   -12.9022 CH2           1 RES     
    1047 CH2         38.6507    14.8951   -13.8588 CH2           1 RES     
    1048 CH2         38.4379    14.2177   -15.2253 CH2           1 RES     
    1049 CH2         39.5752    14.6215   -16.1820 CH2           1 RES     
    1050 CH2         39.3624    13.9441   -17.5485 CH2           1 RES     
    1051 CH2         40.4997    14.3479   -18.5051 CH2           1 RES     
    1052 CH2         40.2869    13.6705   -19.8716 CH2           1 RES     
    1053 CH2         41.4241    14.0743   -20.8282 CH2           1 RES     
    1054 CH2         41.2113    13.3969   -22.1948 CH2           1 RES     
    1055 CH2         42.3486    13.8007   -23.1514 CH2           1 RES     
    1056 CH2         42.1358    13.1233   -24.5179 CH2           1 RES     
    1057 CH2         43.2731    13.5271   -25.4745 CH2           1 RES     
    1058 CH2         43.0603    12.8497   -26.8411 CH2           1 RES     
    1059 CH3         44.1459    13.2352   -27.7542 CH3           1 RES     
    1060 CH2         34.4338    13.6209    -7.4874 CH2           1 RES     
    1061 OE          33.3741    12.8221    -6.8682 OE            1 RES     
    1062 C           32.8911    12.1137    -8.0990 C             1 RES     
    1063 O           31.9729    11.2954    -8.1168 O             1 RES     
    1064 CH2         33.8494    12.4695    -9.0633 CH2           1 RES     
    1065 CH2         33.4186    11.6276   -10.2787 CH2           1 RES     
    1066 CH2         34.4721    11.7588   -11.3943 CH2           1 RES     
    1067 CH2         34.0413    10.9169   -12.6097 CH2           1 RES     
    1068 CH2         35.0948    11.0481   -13.7253 CH2           1 RES     
    1069 CH2         34.6640    10.2062   -14.9407 CH2           1 RES     
    1070 CH2         35.7175    10.3374   -16.0563 CH2           1 RES     
    1071 CH2         35.2867     9.4955   -17.2717 CH2           1 RES     
    1072 CH2         36.3402     9.6267   -18.3873 CH2           1 RES     
    1073 CH2         35.9094     8.7848   -19.6028 CH2           1 RES     
    1074 CH2         36.9629     8.9159   -20.7183 CH2           1 RES     
    1075 CH2         36.5321     8.0741   -21.9338 CH2           1 RES     
    1076 CH2         37.5856     8.2052   -23.0494 CH2           1 RES     
    1077 CH2         37.1548     7.3633   -24.2648 CH2           1 RES     
    1078 CH2         38.2083     7.4945   -25.3804 CH2           1 RES     
    1079 CH2         37.7775     6.6526   -26.5958 CH2           1 RES     
    1080 CH3         38.7831     6.7779   -27.6607 CH3           1 RES     
    1081 CH3         32.8634    32.8634     0.0000 CH3           1 RES     
    1082 CH3         31.5481    33.6470     1.7858 CH3           1 RES     
    1083 CH3         33.4699    34.5730     1.3040 CH3           1 RES     
    1084 NL          32.4113    33.9523     0.8091 NL            1 RES     
    1085 CH2         31.8679    34.9218    -0.0295 CH2           1 RES     
    1086 CH2         30.6441    34.1701    -0.5853 CH2           1 RES     
    1087 OA          29.7354    35.7546    -4.0374 OA            1 RES     
    1088 P           30.5063    34.8203    -2.9920 P             1 RES     
    1089 OM          30.2465    33.3077    -3.4442 OM            1 RES     
    1090 OM          32.0425    35.2670    -3.0178 OM            1 RES     
    1091 OA          29.9068    35.0508    -1.5265 OA            1 RES     
    1092 CH2         30.3166    35.5146    -5.3827 CH2           1 RES     
    1093 CH1         29.5977    36.3990    -6.4184 CH1           1 RES     
    1094 OE          30.5723    37.2943    -7.0584 OE            1 RES     
    1095 C           30.2979    36.7440    -8.4265 C             1 RES     
    1096 O           29.4878    35.8506    -8.6685 O             1 RES     
    1097 CH2         31.2976    37.3419    -9.2125 CH2           1 RES     
    1098 CH2         31.0888    36.6631   -10.5790 CH2           1 RES     
    1099 CH2         32.2237    37.0738   -11.5357 CH2           1 RES     
    1100 CH2         32.0149    36.3951   -12.9022 CH2           1 RES     
    1101 CH2         33.1498    36.8058   -13.8588 CH2           1 RES     
    1102 CH2         32.9411    36.1271   -15.2253 CH2           1 RES     
    1103 CH2         34.0759    36.5378   -16.1820 CH2           1 RES     
    1104 CH2         33.8672    35.8591   -17.5485 CH2           1 RES     
    1105 CH2         35.0020    36.2698   -18.5051 CH2           1 RES     
    1106 CH2         34.7933    35.5910   -19.8716 CH2           1 RES     
    1107 CH2         35.9281    36.0017   -20.8282 CH2           1 RES     
    1108 CH2         35.7194    35.3230   -22.1948 CH2           1 RES     
    1109 CH2         36.8542    35.7337   -23.1514 CH2           1 RES     
    1110 CH2         36.6455    35.0550   -24.5179 CH2           1 RES     
    1111 CH2         37.7803    35.4657   -25.4745 CH2           1 RES     
    1112 CH2         37.5716    34.7870   -26.8411 CH2           1 RES     
    1113 CH3         38.6548    35.1790   -27.7542 CH3           1 RES     
    1114 CH2         28.9406    35.5062    -7.4874 CH2           1 RES     
    1115 OE          27.8857    34.7011    -6.8682 OE            1 RES     
    1116 C           27.4070    33.9898    -8.0990 C             1 RES     
    1117 O           26.4938    33.1660    -8.1168 O             1 RES     
    1118 CH2         28.3631    34.3513    -9.0633 CH2           1 RES     
    1119 CH2         27.9374    33.5069   -10.2787 CH2           1 RES     
    1120 CH2         28.9901    33.6444   -11.3943 CH2           1 RES     
    1121 CH2         28.5644    32.7999   -12.6097 CH2           1 RES     
    1122 CH2         29.6170    32.9374   -13.7253 CH2           1 RES     
    1123 CH2         29.1913    32.0930   -14.9407 CH2           1 RES     
    1124 CH2         30.2440    32.2305   -16.0563 CH2           1 RES     
    1125 CH2         29.8183    31.3860   -17.2717 CH2           1 RES     
    1126 CH2         30.8710    31.5235   -18.3873 CH2           1 RES     
    1127 CH2         30.4453    30.6791   -19.6028 CH2           1 RES     
    1128 CH2         31.4980    30.8166   -20.7183 CH2           1 RES     
    1129 CH2         31.0723    29.9721   -21.9338 CH2           1 RES     
    1130 CH2         32.1249    30.1097   -23.0494 CH2           1 RES     
    1131 CH2         31.6992    29.2652   -24.2648 CH2           1 RES     
    1132 CH2         32.7519    29.4027   -25.3804 CH2           1 RES     
    1133 CH2         32.3262    28.5582   -26.5958 CH2           1 RES     
    1134 CH3         33.3310    28.6895   -27.6607 CH3           1 RES     
    1135 CH3         21.9089    10.9545     0.0000 CH3           1 RES     
    1136 CH3         20.5719    11.7004     1.7858 CH3           1 RES     
    1137 CH3         22.4666    12.6806     1.3040 CH3           1 RES     
    1138 NL          21.4261    12.0301     0.8091 NL            1 RES     
    1139 CH2         20.8554    12.9838    -0.0295 CH2           1 RES     
    1140 CH2         19.6535    12.1976    -0.5853 CH2           1 RES     
    1141 OA          18.7000    13.7556    -4.0374 OA            1 RES     
    1142 P           19.4972    12.8437    -2.9920 P             1 RES     
    1143 OM          19.2805    11.3243    -3.4442 OM            1 RES     
    1144 OM          21.0200    13.3338    -3.0178 OM            1 RES     
    1145 OA          18.8914    13.0571    -1.5265 OA            1 RES     
    1146 CH2         19.2878    13.5323    -5.3827 CH2           1 RES     
    1147 CH1         18.5441    14.3959    -6.4184 CH1           1 RES     
    1148 OE          19.4929    15.3186    -7.0584 OE            1 RES     
    1149 C           19.2342    14.7606    -8.4265 C             1 RES     
    1150 O           18.4498    13.8446    -8.6685 O             1 RES     
    1151 CH2         20.2165    15.3867    -9.2125 CH2           1 RES     
    1152 CH2         20.0272    14.7023   -10.5790 CH2           1 RES     
    1153 CH2         21.1498    15.1451   -11.5357 CH2           1 RES     
    1154 CH2         20.9605    14.4607   -12.9022 CH2           1 RES     
    1155 CH2         22.0832    14.9034   -13.8588 CH2           1 RES     
    1156 CH2         21.8938    14.2191   -15.2253 CH2           1 RES     
    1157 CH2         23.0165    14.6618   -16.1820 CH2           1 RES     
    1158 CH2         22.8272    13.9775   -17.5485 CH2           1 RES     
    1159 CH2         23.9499    14.4202   -18.5051 CH2           1 RES     
    1160 CH2         23.7605    13.7359   -19.8716 CH2           1 RES     
    1161 CH2         24.8832    14.1786   -20.8282 CH2           1 RES     
    1162 CH2         24.6939    13.4943   -22.1948 CH2           1 RES     
    1163 CH2         25.8166    13.9370   -23.1514 CH2           1 RES     
    1164 CH2         25.6272    13.2526   -24.5179 CH2           1 RES     
    1165 CH2         26.7499    13.6954   -25.4745 CH2           1 RES     
    1166 CH2         26.5606    13.0110   -26.8411 CH2           1 RES     
    1167 CH3         27.6322    13.4337   -27.7542 CH3           1 RES     
    1168 CH2         17.9126    13.4848    -7.4874 CH2           1 RES     
    1169 OE          16.8811    12.6500    -6.8682 OE            1 RES     
    1170 C           16.4228    11.9254    -8.0990 C             1 RES     
    1171 O           15.5333    11.0760    -8.1168 O             1 RES     
    1172 CH2         17.3682    12.3140    -9.0633 CH2           1 RES     
    1173 CH2         16.9667    11.4578   -10.2787 CH2           1 RES     
    1174 CH2         18.0150    11.6251   -11.3943 CH2           1 RES     
    1175 CH2         17.6135    10.7689   -12.6097 CH2           1 RES     
    1176 CH2         18.6618    10.9363   -13.7253 CH2           1 RES     
    1177 CH2         18.2603    10.0801   -14.9407 CH2           1 RES     
    1178 CH2         19.3086    10.2474   -16.0563 CH2           1 RES     
    1179 CH2         18.9071     9.3912   -17.2717 CH2           1 RES     
    1180 CH2         19.9554     9.5586   -18.3873 CH2           1 RES     
    1181 CH2         19.5539     8.7024   -19.6028 CH2           1 RES     
    1182 CH2         20.6022     8.8697   -20.7183 CH2           1 RES     
    1183 CH2         20.2007     8.0135   -21.9338 CH2           1 RES     
    1184 CH2         21.2490     8.1809   -23.0494 CH2           1 RES     
    1185 CH2         20.8475     7.3247   -24.2648 CH2           1 RES     
    1186 CH2         21.8958     7.4920   -25.3804 CH2           1 RES     
    1187 CH2         21.4943     6.6358   -26.5958 CH2           1 RES     
    1188 CH3         22.4950     6.7956   -27.6607 CH3           1 RES     
    1189 CH3         21.9089    38.3406     0.0000 CH3           1 RES     
    1190 CH3         20.7374    39.3263     1.7858 CH3           1 RES     
    1191 CH3         22.7835    39.9299     1.3040 CH3           1 RES     
    1192 NL          21.6386    39.4882     0.8091 NL            1 RES     
    1193 CH2         21.2588    40.5327    -0.0295 CH2           1 RES     
    1194 CH2         19.9297    39.9884    -0.5853 CH2           1 RES     
    1195 OA          19.2886    41.6988    -4.0374 OA            1 RES     
    1196 P           19.8986    40.6524    -2.9920 P             1 RES     
    1197 OM          19.3981    39.2015    -3.4442 OM            1 RES     
    1198 OM          21.4868    40.8452    -3.0178 OM            1 RES     
    1199 OA          19.3442    40.9766    -1.5265 OA            1 RES     
    1200 CH2         19.8235    41.3682    -5.3827 CH2           1 RES     
    1201 CH1         19.2568    42.3570    -6.4184 CH1           1 RES     
    1202 OE          20.3631    43.0833    -7.0584 OE            1 RES     
    1203 C           20.0035    42.5844    -8.4265 C             1 RES     
    1204 O           19.0598    41.8336    -8.6685 O             1 RES     
    1205 CH2         21.0865    43.0131    -9.2125 CH2           1 RES     
    1206 CH2         20.7710    42.3770   -10.5790 CH2           1 RES     
    1207 CH2         21.9572    42.5991   -11.5357 CH2           1 RES     
    1208 CH2         21.6417    41.9630   -12.9022 CH2           1 RES     
    1209 CH2         22.8279    42.1851   -13.8588 CH2           1 RES     
    1210 CH2         22.5124    41.5490   -15.2253 CH2           1 RES     
    1211 CH2         23.6986    41.7711   -16.1820 CH2           1 RES     
    1212 CH2         23.3831    41.1350   -17.5485 CH2           1 RES     
    1213 CH2         24.5693    41.3571   -18.5051 CH2           1 RES     
    1214 CH2         24.2538    40.7210   -19.8716 CH2           1 RES     
    1215 CH2         25.4400    40.9431   -20.8282 CH2           1 RES     
    1216 CH2         25.1245    40.3070   -22.1948 CH2           1 RES     
    1217 CH2         26.3107    40.5291   -23.1514 CH2           1 RES     
    1218 CH2         25.9952    39.8930   -24.5179 CH2           1 RES     
    1219 CH2         27.1814    40.1151   -25.4745 CH2           1 RES     
    1220 CH2         26.8659    39.4790   -26.8411 CH2           1 RES     
    1221 CH3         27.9982    39.6910   -27.7542 CH3           1 RES     
    1222 CH2         18.4642    41.5820    -7.4874 CH2           1 RES     
    1223 OE          17.2932    40.9577    -6.8682 OE            1 RES     
    1224 C           16.7059    40.3330    -8.0990 C             1 RES     
    1225 O           15.6717    39.6674    -8.1168 O             1 RES     
    1226 CH2         17.7079    40.5355    -9.0633 CH2           1 RES     
    1227 CH2         17.1514    39.7708   -10.2787 CH2           1 RES     
    1228 CH2         18.2125    39.7366   -11.3943 CH2           1 RES     
    1229 CH2         17.6561    38.9719   -12.6097 CH2           1 RES     
    1230 CH2         18.7171    38.9377   -13.7253 CH2           1 RES     
    1231 CH2         18.1607    38.1730   -14.9407 CH2           1 RES     
    1232 CH2         19.2218    38.1388   -16.0563 CH2           1 RES     
    1233 CH2         18.6653    37.3741   -17.2717 CH2           1 RES     
    1234 CH2         19.7264    37.3399   -18.3873 CH2           1 RES     
    1235 CH2         19.1700    36.5753   -19.6028 CH2           1 RES     
    1236 CH2         20.2310    36.5411   -20.7183 CH2           1 RES     
    1237 CH2         19.6746    35.7764   -21.9338 CH2           1 RES     
    1238 CH2         20.7357    35.7422   -23.0494 CH2           1 RES     
    1239 CH2         20.1792    34.9775   -24.2648 CH2           1 RES     
    1240 CH2         21.2403    34.9433   -25.3804 CH2           1 RES     
    1241 CH2         20.6839    34.1786   -26.5958 CH2           1 RES     
    1242 CH3         21.6967    34.1460   -27.6607 CH3           1 RES     
    1243 CH3         32.8634    10.9545     0.0000 CH3           1 RES     
    1244 CH3         31.7491    12.0045     1.7858 CH3           1 RES     
    1245 CH3         33.8259    12.4921     1.3040 CH3           1 RES     
    1246 NL          32.6580    12.1155     0.8091 NL            1 RES     
    1247 CH2         32.3375    13.1797    -0.0295 CH2           1 RES     
    1248 CH2         30.9800    12.7109    -0.5853 CH2           1 RES     
    1249 OA          30.4360    14.4547    -4.0374 OA            1 RES     
    1250 P           30.9862    13.3756    -2.9920 P             1 RES     
    1251 OM          30.4050    11.9552    -3.4442 OM            1 RES     
    1252 OM          32.5827    13.4788    -3.0178 OM            1 RES     
    1253 OA          30.4509    13.7305    -1.5265 OA            1 RES     
    1254 CH2         30.9514    14.0945    -5.3827 CH2           1 RES     
    1255 CH1         30.4413    15.1136    -6.4184 CH1           1 RES     
    1256 OE          31.5866    15.7766    -7.0584 OE            1 RES     
    1257 C           31.1995    15.2987    -8.4265 C             1 RES     
    1258 O           30.2151    14.6021    -8.6685 O             1 RES     
    1259 CH2         32.3050    15.6658    -9.2125 CH2           1 RES     
    1260 CH2         31.9542    15.0484   -10.5790 CH2           1 RES     
    1261 CH2         33.1510    15.2035   -11.5357 CH2           1 RES     
    1262 CH2         32.8002    14.5861   -12.9022 CH2           1 RES     
    1263 CH2         33.9971    14.7412   -13.8588 CH2           1 RES     
    1264 CH2         33.6463    14.1238   -15.2253 CH2           1 RES     
    1265 CH2         34.8431    14.2789   -16.1820 CH2           1 RES     
    1266 CH2         34.4923    13.6615   -17.5485 CH2           1 RES     
    1267 CH2         35.6892    13.8166   -18.5051 CH2           1 RES     
    1268 CH2         35.3384    13.1992   -19.8716 CH2           1 RES     
    1269 CH2         36.5352    13.3543   -20.8282 CH2           1 RES     
    1270 CH2         36.1844    12.7370   -22.1948 CH2           1 RES     
    1271 CH2         37.3812    12.8920   -23.1514 CH2           1 RES     
    1272 CH2         37.0305    12.2747   -24.5179 CH2           1 RES     
    1273 CH2         38.2273    12.4297   -25.4745 CH2           1 RES     
    1274 CH2         37.8765    11.8124   -26.8411 CH2           1 RES     
    1275 CH3         39.0189    11.9604   -27.7542 CH3           1 RES     
    1276 CH2         29.6063    14.3844    -7.4874 CH2           1 RES     
    1277 OE          28.4021    13.8269    -6.8682 OE            1 RES     
    1278 C           27.7806    13.2362    -8.0990 C             1 RES     
    1279 O           26.7106    12.6299    -8.1168 O             1 RES     
    1280 CH2         28.7924    13.3821    -9.0633 CH2           1 RES     
    1281 CH2         28.1938    12.6499   -10.2787 CH2           1 RES     
    1282 CH2         29.2513    12.5561   -11.3943 CH2           1 RES     
    1283 CH2         28.6527    11.8239   -12.6097 CH2           1 RES     
    1284 CH2         29.7102    11.7301   -13.7253 CH2           1 RES     
    1285 CH2         29.1117    10.9979   -14.9407 CH2           1 RES     
    1286 CH2         30.1691    10.9041   -16.0563 CH2           1 RES     
    1287 CH2         29.5706    10.1719   -17.2717 CH2           1 RES     
    1288 CH2         30.6280    10.0781   -18.3873 CH2           1 RES     
    1289 CH2         30.0295     9.3459   -19.6028 CH2           1 RES     
    1290 CH2         31.0870     9.2521   -20.7183 CH2           1 RES     
    1291 CH2         30.4884     8.5199   -21.9338 CH2           1 RES     
    1292 CH2         31.5459     8.4261   -23.0494 CH2           1 RES     
    1293 CH2         30.9474     7.6939   -24.2648 CH2           1 RES     
    1294 CH2         32.0048     7.6001   -25.3804 CH2           1 RES     
    1295 CH2         31.4063     6.8679   -26.5958 CH2           1 RES     
    1296 CH3         32.4157     6.7784   -27.6607 CH3           1 RES     
    1297 CH3         10.9545    16.4317     0.0000 CH3           1 RES     
    1298 CH3          9.8273    17.4678     1.7858 CH3           1 RES     
    1299 CH3         11.8979    17.9811     1.3040 CH3           1 RES     
    1300 NL          10.7347    17.5901     0.8091 NL            1 RES     
    1301 CH2         10.4012    18.6502    -0.0295 CH2           1 RES     
    1302 CH2          9.0495    18.1647    -0.5853 CH2           1 RES     
    1303 OA           8.4840    19.9016    -4.0374 OA            1 RES     
    1304 P            9.0475    18.8295    -2.9920 P             1 RES     
    1305 OM           8.4839    17.4020    -3.4442 OM            1 RES     
    1306 OM          10.6426    18.9524    -3.0178 OM            1 RES     
    1307 OA           8.5079    19.1777    -1.5265 OA            1 RES     
    1308 CH2          9.0039    19.5479    -5.3827 CH2           1 RES     
    1309 CH1          8.4811    20.5606    -6.4184 CH1           1 RES     
    1310 OE           9.6182    21.2376    -7.0584 OE            1 RES     
    1311 C            9.2371    20.7550    -8.4265 C             1 RES     
    1312 O            8.2613    20.0463    -8.6685 O             1 RES     
    1313 CH2         10.3379    21.1358    -9.2125 CH2           1 RES     
    1314 CH2          9.9948    20.5141   -10.5790 CH2           1 RES     
    1315 CH2         11.1896    20.6840   -11.5357 CH2           1 RES     
    1316 CH2         10.8465    20.0623   -12.9022 CH2           1 RES     
    1317 CH2         12.0413    20.2322   -13.8588 CH2           1 RES     
    1318 CH2         11.6982    19.6105   -15.2253 CH2           1 RES     
    1319 CH2         12.8930    19.7804   -16.1820 CH2           1 RES     
    1320 CH2         12.5498    19.1587   -17.5485 CH2           1 RES     
    1321 CH2         13.7447    19.3286   -18.5051 CH2           1 RES     
    1322 CH2         13.4015    18.7069   -19.8716 CH2           1 RES     
    1323 CH2         14.5964    18.8768   -20.8282 CH2           1 RES     
    1324 CH2         14.2532    18.2551   -22.1948 CH2           1 RES     
    1325 CH2         15.4481    18.4249   -23.1514 CH2           1 RES     
    1326 CH2         15.1049    17.8033   -24.5179 CH2           1 RES     
    1327 CH2         16.2997    17.9731   -25.4745 CH2           1 RES     
    1328 CH2         15.9566    17.3515   -26.8411 CH2           1 RES     
    1329 CH3         17.0971    17.5136   -27.7542 CH3           1 RES     
    1330 CH2          7.6553    19.8211    -7.4874 CH2           1 RES     
    1331 OE           6.4580    19.2488    -6.8682 OE            1 RES     
    1332 C            5.8439    18.6505    -8.0990 C             1 RES     
    1333 O            4.7815    18.0309    -8.1168 O             1 RES     
    1334 CH2          6.8538    18.8088    -9.0633 CH2           1 RES     
    1335 CH2          6.2643    18.0693   -10.2787 CH2           1 RES     
    1336 CH2          7.3229    17.9885   -11.3943 CH2           1 RES     
    1337 CH2          6.7334    17.2490   -12.6097 CH2           1 RES     
    1338 CH2          7.7920    17.1683   -13.7253 CH2           1 RES     
    1339 CH2          7.2025    16.4288   -14.9407 CH2           1 RES     
    1340 CH2          8.2610    16.3480   -16.0563 CH2           1 RES     
    1341 CH2          7.6716    15.6085   -17.2717 CH2           1 RES     
    1342 CH2          8.7301    15.5278   -18.3873 CH2           1 RES     
    1343 CH2          8.1407    14.7882   -19.6028 CH2           1 RES     
    1344 CH2          9.1992    14.7075   -20.7183 CH2           1 RES     
    1345 CH2          8.6098    13.9680   -21.9338 CH2           1 RES     
    1346 CH2          9.6683    13.8873   -23.0494 CH2           1 RES     
    1347 CH2          9.0789    13.1477   -24.2648 CH2           1 RES     
    1348 CH2         10.1374    13.0670   -25.3804 CH2           1 RES     
    1349 CH2          9.5480    12.3275   -26.5958 CH2           1 RES     
    1350 CH3         10.5584    12.2504   -27.6607 CH3           1 RES     
    1351 CH3         16.4317    32.8634     0.0000 CH3           1 RES     
    1352 CH3         15.1742    33.7368     1.7858 CH3           1 RES     
    1353 CH3         17.1559    34.5266     1.3040 CH3           1 RES     
    1354 NL          16.0566    33.9812     0.8091 NL            1 RES     
    1355 CH2         15.5822    34.9862    -0.0295 CH2           1 RES     
    1356 CH2         14.3090    34.3216    -0.5853 CH2           1 RES     
    1357 OA          13.5128    35.9656    -4.0374 OA            1 RES     
    1358 P           14.2168    34.9799    -2.9920 P             1 RES     
    1359 OM          13.8522    33.4891    -3.4442 OM            1 RES     
    1360 OM          15.7803    35.3183    -3.0178 OM            1 RES     
    1361 OA          13.6348    35.2516    -1.5265 OA            1 RES     
    1362 CH2         14.0759    35.6857    -5.3827 CH2           1 RES     
    1363 CH1         13.4205    36.6181    -6.4184 CH1           1 RES     
    1364 OE          14.4551    37.4433    -7.0584 OE            1 RES     
    1365 C           14.1430    36.9134    -8.4265 C             1 RES     
    1366 O           13.2725    36.0787    -8.6685 O             1 RES     
    1367 CH2         15.1819    37.4401    -9.2125 CH2           1 RES     
    1368 CH2         14.9264    36.7776   -10.5790 CH2           1 RES     
    1369 CH2         16.0871    37.1082   -11.5357 CH2           1 RES     
    1370 CH2         15.8315    36.4457   -12.9022 CH2           1 RES     
    1371 CH2         16.9922    36.7762   -13.8588 CH2           1 RES     
    1372 CH2         16.7367    36.1137   -15.2253 CH2           1 RES     
    1373 CH2         17.8974    36.4443   -16.1820 CH2           1 RES     
    1374 CH2         17.6419    35.7818   -17.5485 CH2           1 RES     
    1375 CH2         18.8026    36.1124   -18.5051 CH2           1 RES     
    1376 CH2         18.5470    35.4499   -19.8716 CH2           1 RES     
    1377 CH2         19.7077    35.7805   -20.8282 CH2           1 RES     
    1378 CH2         19.4522    35.1179   -22.1948 CH2           1 RES     
    1379 CH2         20.6129    35.4485   -23.1514 CH2           1 RES     
    1380 CH2         20.3574    34.7860   -24.5179 CH2           1 RES     
    1381 CH2         21.5181    35.1166   -25.4745 CH2           1 RES     
    1382 CH2         21.2625    34.4541   -26.8411 CH2           1 RES     
    1383 CH3         22.3705    34.7696   -27.7542 CH3           1 RES     
    1384 CH2         12.7027    35.7733    -7.4874 CH2           1 RES     
    1385 OE          11.5943    35.0436    -6.8682 OE            1 RES     
    1386 C           11.0671    34.3674    -8.0990 C             1 RES     
    1387 O           10.0987    33.6093    -8.1168 O             1 RES     
    1388 CH2         12.0461    34.6614    -9.0633 CH2           1 RES     
    1389 CH2         11.5626    33.8487   -10.2787 CH2           1 RES     
    1390 CH2         12.6223    33.9125   -11.3943 CH2           1 RES     
    1391 CH2         12.1387    33.0998   -12.6097 CH2           1 RES     
    1392 CH2         13.1984    33.1636   -13.7253 CH2           1 RES     
    1393 CH2         12.7149    32.3508   -14.9407 CH2           1 RES     
    1394 CH2         13.7746    32.4146   -16.0563 CH2           1 RES     
    1395 CH2         13.2911    31.6019   -17.2717 CH2           1 RES     
    1396 CH2         14.3508    31.6657   -18.3873 CH2           1 RES     
    1397 CH2         13.8672    30.8530   -19.6028 CH2           1 RES     
    1398 CH2         14.9269    30.9168   -20.7183 CH2           1 RES     
    1399 CH2         14.4434    30.1040   -21.9338 CH2           1 RES     
    1400 CH2         15.5031    30.1678   -23.0494 CH2           1 RES     
    1401 CH2         15.0196    29.3551   -24.2648 CH2           1 RES     
    1402 CH2         16.0793    29.4189   -25.3804 CH2           1 RES     
    1403 CH2         15.5957    28.6062   -26.5958 CH2           1 RES     
    1404 CH3         16.6073    28.6671   -27.6607 CH3           1 RES     
    1405 CH3         10.9545    32.8634     0.0000 CH3           1 RES     
    1406 CH3          9.6019    33.5808     1.7858 CH3           1 RES     
    1407 CH3         11.4754    34.6010     1.3040 CH3           1 RES     
    1408 NL          10.4489    33.9285     0.8091 NL            1 RES     
    1409 CH2          9.8581    34.8699    -0.0295 CH2           1 RES     
    1410 CH2          8.6731    34.0584    -0.5853 CH2           1 RES     
    1411 OA           7.6868    35.5958    -4.0374 OA            1 RES     
    1412 P            8.5032    34.7010    -2.9920 P             1 RES     
    1413 OM           8.3188    33.1773    -3.4442 OM            1 RES     
    1414 OM          10.0153    35.2233    -3.0178 OM            1 RES     
    1415 OA           7.8930    34.9014    -1.5265 OA            1 RES     
    1416 CH2          8.2792    35.3850    -5.3827 CH2           1 RES     
    1417 CH1          7.5174    36.2326    -6.4184 CH1           1 RES     
    1418 OE           8.4463    37.1752    -7.0584 OE            1 RES     
    1419 C            8.1996    36.6119    -8.4265 C             1 RES     
    1420 O            7.4348    35.6794    -8.6685 O             1 RES     
    1421 CH2          9.1683    37.2586    -9.2125 CH2           1 RES     
    1422 CH2          8.9936    36.5704   -10.5790 CH2           1 RES     
    1423 CH2         10.1066    37.0369   -11.5357 CH2           1 RES     
    1424 CH2          9.9318    36.3487   -12.9022 CH2           1 RES     
    1425 CH2         11.0449    36.8152   -13.8588 CH2           1 RES     
    1426 CH2         10.8701    36.1269   -15.2253 CH2           1 RES     
    1427 CH2         11.9831    36.5934   -16.1820 CH2           1 RES     
    1428 CH2         11.8084    35.9052   -17.5485 CH2           1 RES     
    1429 CH2         12.9214    36.3717   -18.5051 CH2           1 RES     
    1430 CH2         12.7466    35.6834   -19.8716 CH2           1 RES     
    1431 CH2         13.8597    36.1499   -20.8282 CH2           1 RES     
    1432 CH2         13.6849    35.4617   -22.1948 CH2           1 RES     
    1433 CH2         14.7979    35.9282   -23.1514 CH2           1 RES     
    1434 CH2         14.6232    35.2400   -24.5179 CH2           1 RES     
    1435 CH2         15.7362    35.7065   -25.4745 CH2           1 RES     
    1436 CH2         15.5614    35.0182   -26.8411 CH2           1 RES     
    1437 CH3         16.6239    35.4635   -27.7542 CH3           1 RES     
    1438 CH2          6.9053    35.3083    -7.4874 CH2           1 RES     
    1439 OE           5.8918    34.4518    -6.8682 OE            1 RES     
    1440 C            5.4489    33.7177    -8.0990 C             1 RES     
    1441 O            4.5777    32.8496    -8.1168 O             1 RES     
    1442 CH2          6.3859    34.1262    -9.0633 CH2           1 RES     
    1443 CH2          6.0026    33.2616   -10.2787 CH2           1 RES     
    1444 CH2          7.0472    33.4512   -11.3943 CH2           1 RES     
    1445 CH2          6.6639    32.5867   -12.6097 CH2           1 RES     
    1446 CH2          7.7085    32.7763   -13.7253 CH2           1 RES     
    1447 CH2          7.3252    31.9117   -14.9407 CH2           1 RES     
    1448 CH2          8.3698    32.1013   -16.0563 CH2           1 RES     
    1449 CH2          7.9865    31.2367   -17.2717 CH2           1 RES     
    1450 CH2          9.0310    31.4263   -18.3873 CH2           1 RES     
    1451 CH2          8.6478    30.5618   -19.6028 CH2           1 RES     
    1452 CH2          9.6923    30.7514   -20.7183 CH2           1 RES     
    1453 CH2          9.3090    29.8868   -21.9338 CH2           1 RES     
    1454 CH2         10.3536    30.0764   -23.0494 CH2           1 RES     
    1455 CH2          9.9703    29.2118   -24.2648 CH2           1 RES     
    1456 CH2         11.0149    29.4014   -25.3804 CH2           1 RES     
    1457 CH2         10.6316    28.5369   -26.5958 CH2           1 RES     
    1458 CH3         11.6287    28.7179   -27.6607 CH3           1 RES     
    1459 CH3         38.3406     5.4772     0.0000 CH3           1 RES     
    1460 CH3         37.1044     6.3805     1.7858 CH3           1 RES     
    1461 CH3         39.1043     7.1227     1.3040 CH3           1 RES     
    1462 NL          37.9923     6.6037     0.8091 NL            1 RES     
    1463 CH2         37.5420     7.6197    -0.0295 CH2           1 RES     
    1464 CH2         36.2533     6.9858    -0.5853 CH2           1 RES     
    1465 OA          35.4967     8.6483    -4.0374 OA            1 RES     
    1466 P           36.1768     7.6461    -2.9920 P             1 RES     
    1467 OM          35.7768     6.1644    -3.4442 OM            1 RES     
    1468 OM          37.7480     7.9471    -3.0178 OM            1 RES     
    1469 OA          35.6015     7.9316    -1.5265 OA            1 RES     
    1470 CH2         36.0529     8.3551    -5.3827 CH2           1 RES     
    1471 CH1         35.4199     9.3028    -6.4184 CH1           1 RES     
    1472 OE          36.4739    10.1030    -7.0584 OE            1 RES     
    1473 C           36.1492     9.5807    -8.4265 C             1 RES     
    1474 O           35.2591     8.7671    -8.6685 O             1 RES     
    1475 CH2         37.2004    10.0825    -9.2125 CH2           1 RES     
    1476 CH2         36.9292     9.4263   -10.5790 CH2           1 RES     
    1477 CH2         38.0974     9.7291   -11.5357 CH2           1 RES     
    1478 CH2         37.8262     9.0728   -12.9022 CH2           1 RES     
    1479 CH2         38.9944     9.3756   -13.8588 CH2           1 RES     
    1480 CH2         38.7231     8.7194   -15.2253 CH2           1 RES     
    1481 CH2         39.8914     9.0222   -16.1820 CH2           1 RES     
    1482 CH2         39.6201     8.3659   -17.5485 CH2           1 RES     
    1483 CH2         40.7884     8.6687   -18.5051 CH2           1 RES     
    1484 CH2         40.5171     8.0125   -19.8716 CH2           1 RES     
    1485 CH2         41.6854     8.3153   -20.8282 CH2           1 RES     
    1486 CH2         41.4141     7.6590   -22.1948 CH2           1 RES     
    1487 CH2         42.5823     7.9618   -23.1514 CH2           1 RES     
    1488 CH2         42.3111     7.3056   -24.5179 CH2           1 RES     
    1489 CH2         43.4793     7.6083   -25.4745 CH2           1 RES     
    1490 CH2         43.2081     6.9521   -26.8411 CH2           1 RES     
    1491 CH3         44.3232     7.2411   -27.7542 CH3           1 RES     
    1492 CH2         34.6821     8.4754    -7.4874 CH2           1 RES     
    1493 OE          33.5566     7.7724    -6.8682 OE            1 RES     
    1494 C           33.0135     7.1090    -8.0990 C             1 RES     
    1495 O           32.0272     6.3742    -8.1168 O             1 RES     
    1496 CH2         33.9992     7.3795    -9.0633 CH2           1 RES     
    1497 CH2         33.4964     6.5786   -10.2787 CH2           1 RES     
    1498 CH2         34.5573     6.6170   -11.3943 CH2           1 RES     
    1499 CH2         34.0545     5.8161   -12.6097 CH2           1 RES     
    1500 CH2         35.1154     5.8546   -13.7253 CH2           1 RES     
    1501 CH2         34.6126     5.0536   -14.9407 CH2           1 RES     
    1502 CH2         35.6735     5.0921   -16.0563 CH2           1 RES     
    1503 CH2         35.1707     4.2911   -17.2717 CH2           1 RES     
    1504 CH2         36.2317     4.3296   -18.3873 CH2           1 RES     
    1505 CH2         35.7288     3.5286   -19.6028 CH2           1 RES     
    1506 CH2         36.7898     3.5671   -20.7183 CH2           1 RES     
    1507 CH2         36.2870     2.7662   -21.9338 CH2           1 RES     
    1508 CH2         37.3479     2.8046   -23.0494 CH2           1 RES     
    1509 CH2         36.8451     2.0037   -24.2648 CH2           1 RES     
    1510 CH2         37.9060     2.0422   -25.3804 CH2           1 RES     
    1511 CH2         37.4032     1.2412   -26.5958 CH2           1 RES     
    1512 CH3         38.4159     1.2779   -27.6607 CH3           1 RES     
    1513 CH3          5.4772    38.3406     0.0000 CH3           1 RES     
    1514 CH3          4.1235    39.0557     1.7858 CH3           1 RES     
    1515 CH3          5.9952    40.0791     1.3040 CH3           1 RES     
    1516 NL           4.9699    39.4049     0.8091 NL            1 RES     
    1517 CH2          4.3774    40.3452    -0.0295 CH2           1 RES     
    1518 CH2          3.1939    39.5316    -0.5853 CH2           1 RES     
    1519 OA           2.2049    41.0674    -4.0374 OA            1 RES     
    1520 P            3.0228    40.1740    -2.9920 P             1 RES     
    1521 OM           2.8410    38.6500    -3.4442 OM            1 RES     
    1522 OM           4.5340    40.6989    -3.0178 OM            1 RES     
    1523 OA           2.4123    40.3734    -1.5265 OA            1 RES     
    1524 CH2          2.7977    40.8576    -5.3827 CH2           1 RES     
    1525 CH1          2.0343    41.7039    -6.4184 CH1           1 RES     
    1526 OE           2.9616    42.6481    -7.0584 OE            1 RES     
    1527 C            2.7159    42.0843    -8.4265 C             1 RES     
    1528 O            1.9527    41.1506    -8.6685 O             1 RES     
    1529 CH2          3.6835    42.7328    -9.2125 CH2           1 RES     
    1530 CH2          3.5099    42.0442   -10.5790 CH2           1 RES     
    1531 CH2          4.6222    42.5127   -11.5357 CH2           1 RES     
    1532 CH2          4.4486    41.8241   -12.9022 CH2           1 RES     
    1533 CH2          5.5608    42.2925   -13.8588 CH2           1 RES     
    1534 CH2          5.3872    41.6040   -15.2253 CH2           1 RES     
    1535 CH2          6.4995    42.0724   -16.1820 CH2           1 RES     
    1536 CH2          6.3259    41.3839   -17.5485 CH2           1 RES     
    1537 CH2          7.4381    41.8523   -18.5051 CH2           1 RES     
    1538 CH2          7.2645    41.1638   -19.8716 CH2           1 RES     
    1539 CH2          8.3768    41.6322   -20.8282 CH2           1 RES     
    1540 CH2          8.2032    40.9436   -22.1948 CH2           1 RES     
    1541 CH2          9.3154    41.4121   -23.1514 CH2           1 RES     
    1542 CH2          9.1418    40.7235   -24.5179 CH2           1 RES     
    1543 CH2         10.2540    41.1919   -25.4745 CH2           1 RES     
    1544 CH2         10.0805    40.5034   -26.8411 CH2           1 RES     
    1545 CH3         11.1421    40.9505   -27.7542 CH3           1 RES     
    1546 CH2          1.4239    40.7785    -7.4874 CH2           1 RES     
    1547 OE           0.4118    39.9203    -6.8682 OE            1 RES     
    1548 C           -0.0298    39.1854    -8.0990 C             1 RES     
    1549 O           -0.8995    38.3158    -8.1168 O             1 RES     
    1550 CH2          0.9065    39.5955    -9.0633 CH2           1 RES     
    1551 CH2          0.5247    38.7303   -10.2787 CH2           1 RES     
    1552 CH2          1.5690    38.9217   -11.3943 CH2           1 RES     
    1553 CH2          1.1872    38.0565   -12.6097 CH2           1 RES     
    1554 CH2          2.2314    38.2479   -13.7253 CH2           1 RES     
    1555 CH2          1.8496    37.3827   -14.9407 CH2           1 RES     
    1556 CH2          2.8938    37.5741   -16.0563 CH2           1 RES     
    1557 CH2          2.5121    36.7088   -17.2717 CH2           1 RES     
    1558 CH2          3.5563    36.9002   -18.3873 CH2           1 RES     
    1559 CH2          3.1745    36.0350   -19.6028 CH2           1 RES     
    1560 CH2          4.2187    36.2264   -20.7183 CH2           1 RES     
    1561 CH2          3.8370    35.3612   -21.9338 CH2           1 RES     
    1562 CH2          4.8812    35.5526   -23.0494 CH2           1 RES     
    1563 CH2          4.4994    34.6874   -24.2648 CH2           1 RES     
    1564 CH2          5.5436    34.8788   -25.3804 CH2           1 RES     
    1565 CH2          5.1618    34.0136   -26.5958 CH2           1 RES     
    1566 CH3          6.1586    34.1963   -27.6607 CH3           1 RES     
    1567 CH3         38.3406     0.0000     0.0000 CH3           1 RES     
    1568 CH3         37.0882     0.8807     1.7858 CH3           1 RES     
    1569 CH3         39.0744     1.6590     1.3040 CH3           1 RES     
    1570 NL          37.9720     1.1200     0.8091 NL            1 RES     
    1571 CH2         37.5033     2.1277    -0.0295 CH2           1 RES     
    1572 CH2         36.2263     1.4705    -0.5853 CH2           1 RES     
    1573 OA          35.4397     3.1190    -4.0374 OA            1 RES     
    1574 P           36.1379     2.1293    -2.9920 P             1 RES     
    1575 OM          35.7648     0.6406    -3.4442 OM            1 RES     
    1576 OM          37.7034     2.4587    -3.0178 OM            1 RES     
    1577 OA          35.5575     2.4044    -1.5265 OA            1 RES     
    1578 CH2         36.0011     2.8359    -5.3827 CH2           1 RES     
    1579 CH1         35.3511     3.7720    -6.4184 CH1           1 RES     
    1580 OE          36.3904     4.5912    -7.0584 OE            1 RES     
    1581 C           36.0753     4.0632    -8.4265 C             1 RES     
    1582 O           35.2001     3.2335    -8.6685 O             1 RES     
    1583 CH2         37.1172     4.5839    -9.2125 CH2           1 RES     
    1584 CH2         36.8579     3.9229   -10.5790 CH2           1 RES     
    1585 CH2         38.0205     4.2467   -11.5357 CH2           1 RES     
    1586 CH2         37.7611     3.5857   -12.9022 CH2           1 RES     
    1587 CH2         38.9237     3.9096   -13.8588 CH2           1 RES     
    1588 CH2         38.6644     3.2486   -15.2253 CH2           1 RES     
    1589 CH2         39.8269     3.5724   -16.1820 CH2           1 RES     
    1590 CH2         39.5676     2.9114   -17.5485 CH2           1 RES     
    1591 CH2         40.7302     3.2353   -18.5051 CH2           1 RES     
    1592 CH2         40.4708     2.5743   -19.8716 CH2           1 RES     
    1593 CH2         41.6334     2.8981   -20.8282 CH2           1 RES     
    1594 CH2         41.3741     2.2371   -22.1948 CH2           1 RES     
    1595 CH2         42.5366     2.5610   -23.1514 CH2           1 RES     
    1596 CH2         42.2773     1.9000   -24.5179 CH2           1 RES     
    1597 CH2         43.4399     2.2238   -25.4745 CH2           1 RES     
    1598 CH2         43.1805     1.5628   -26.8411 CH2           1 RES     
    1599 CH3         44.2903     1.8720   -27.7542 CH3           1 RES     
    1600 CH2         34.6284     2.9314    -7.4874 CH2           1 RES     
    1601 OE          33.5158     2.2081    -6.8682 OE            1 RES     
    1602 C           32.9848     1.5350    -8.0990 C             1 RES     
    1603 O           32.0120     0.7825    -8.1168 O             1 RES     
    1604 CH2         33.9655     1.8234    -9.0633 CH2           1 RES     
    1605 CH2         33.4772     1.0134   -10.2787 CH2           1 RES     
    1606 CH2         34.5373     1.0711   -11.3943 CH2           1 RES     
    1607 CH2         34.0491     0.2612   -12.6097 CH2           1 RES     
    1608 CH2         35.1091     0.3189   -13.7253 CH2           1 RES     
    1609 CH2         34.6209    -0.4911   -14.9407 CH2           1 RES     
    1610 CH2         35.6810    -0.4334   -16.0563 CH2           1 RES     
    1611 CH2         35.1927    -1.2433   -17.2717 CH2           1 RES     
    1612 CH2         36.2528    -1.1856   -18.3873 CH2           1 RES     
    1613 CH2         35.7646    -1.9956   -19.6028 CH2           1 RES     
    1614 CH2         36.8246    -1.9379   -20.7183 CH2           1 RES     
    1615 CH2         36.3364    -2.7478   -21.9338 CH2           1 RES     
    1616 CH2         37.3965    -2.6901   -23.0494 CH2           1 RES     
    1617 CH2         36.9082    -3.5001   -24.2648 CH2           1 RES     
    1618 CH2         37.9683    -3.4424   -25.3804 CH2           1 RES     
    1619 CH2         37.4801    -4.2523   -26.5958 CH2           1 RES     
    1620 CH3         38.4919    -4.1972   -27.6607 CH3           1 RES     
    1621 CH3         16.4317    38.3406     0.0000 CH3           1 RES     
    1622 CH3         15.4077    39.4788     1.7858 CH3           1 RES     
    1623 CH3         17.5176    39.7937     1.3040 CH3           1 RES     
    1624 NL          16.3226    39.5146     0.8091 NL            1 RES     
    1625 CH2         16.0909    40.6015    -0.0295 CH2           1 RES     
    1626 CH2         14.6994    40.2462    -0.5853 CH2           1 RES     
    1627 OA          14.3009    42.0288    -4.0374 OA            1 RES     
    1628 P           14.7604    40.9081    -2.9920 P             1 RES     
    1629 OM          14.0641    39.5404    -3.4442 OM            1 RES     
    1630 OM          16.3599    40.8795    -3.0178 OM            1 RES     
    1631 OA          14.2561    41.3059    -1.5265 OA            1 RES     
    1632 CH2         14.7849    41.6275    -5.3827 CH2           1 RES     
    1633 CH1         14.3604    42.6851    -6.4184 CH1           1 RES     
    1634 OE          15.5565    43.2515    -7.0584 OE            1 RES     
    1635 C           15.1313    42.8071    -8.4265 C             1 RES     
    1636 O           14.0929    42.1940    -8.6685 O             1 RES     
    1637 CH2         16.2633    43.0819    -9.2125 CH2           1 RES     
    1638 CH2         15.8628    42.4955   -10.5790 CH2           1 RES     
    1639 CH2         17.0684    42.5515   -11.5357 CH2           1 RES     
    1640 CH2         16.6679    41.9651   -12.9022 CH2           1 RES     
    1641 CH2         17.8735    42.0211   -13.8588 CH2           1 RES     
    1642 CH2         17.4730    41.4347   -15.2253 CH2           1 RES     
    1643 CH2         18.6786    41.4907   -16.1820 CH2           1 RES     
    1644 CH2         18.2781    40.9043   -17.5485 CH2           1 RES     
    1645 CH2         19.4836    40.9603   -18.5051 CH2           1 RES     
    1646 CH2         19.0832    40.3739   -19.8716 CH2           1 RES     
    1647 CH2         20.2887    40.4298   -20.8282 CH2           1 RES     
    1648 CH2         19.8883    39.8435   -22.1948 CH2           1 RES     
    1649 CH2         21.0938    39.8994   -23.1514 CH2           1 RES     
    1650 CH2         20.6934    39.3130   -24.5179 CH2           1 RES     
    1651 CH2         21.8989    39.3690   -25.4745 CH2           1 RES     
    1652 CH2         21.4984    38.7826   -26.8411 CH2           1 RES     
    1653 CH3         22.6492    38.8361   -27.7542 CH3           1 RES     
    1654 CH2         13.4682    42.0272    -7.4874 CH2           1 RES     
    1655 OE          12.2222    41.5707    -6.8682 OE            1 RES     
    1656 C           11.5542    41.0333    -8.0990 C             1 RES     
    1657 O           10.4379    40.5171    -8.1168 O             1 RES     
    1658 CH2         12.5745    41.0953    -9.0633 CH2           1 RES     
    1659 CH2         11.9177    40.4149   -10.2787 CH2           1 RES     
    1660 CH2         12.9638    40.2343   -11.3943 CH2           1 RES     
    1661 CH2         12.3070    39.5539   -12.6097 CH2           1 RES     
    1662 CH2         13.3531    39.3733   -13.7253 CH2           1 RES     
    1663 CH2         12.6963    38.6929   -14.9407 CH2           1 RES     
    1664 CH2         13.7425    38.5123   -16.0563 CH2           1 RES     
    1665 CH2         13.0856    37.8319   -17.2717 CH2           1 RES     
    1666 CH2         14.1318    37.6513   -18.3873 CH2           1 RES     
    1667 CH2         13.4750    36.9709   -19.6028 CH2           1 RES     
    1668 CH2         14.5211    36.7903   -20.7183 CH2           1 RES     
    1669 CH2         13.8643    36.1100   -21.9338 CH2           1 RES     
    1670 CH2         14.9104    35.9294   -23.0494 CH2           1 RES     
    1671 CH2         14.2536    35.2490   -24.2648 CH2           1 RES     
    1672 CH2         15.2998    35.0684   -25.3804 CH2           1 RES     
    1673 CH2         14.6429    34.3880   -26.5958 CH2           1 RES     
    1674 CH3         15.6415    34.2156   -27.6607 CH3           1 RES     
    1675 CH3         21.9089    16.4317     0.0000 CH3           1 RES     
    1676 CH3         20.8646    17.5513     1.7858 CH3           1 RES     
    1677 CH3         22.9685    17.9041     1.3040 CH3           1 RES     
    1678 NL          21.7787    17.6035     0.8091 NL            1 RES     
    1679 CH2         21.5275    18.6861    -0.0295 CH2           1 RES     
    1680 CH2         20.1425    18.3058    -0.5853 CH2           1 RES     
    1681 OA          19.7120    20.0810    -4.0374 OA            1 RES     
    1682 P           20.1916    18.9687    -2.9920 P             1 RES     
    1683 OM          19.5201    17.5887    -3.4442 OM            1 RES     
    1684 OM          21.7914    18.9689    -3.0178 OM            1 RES     
    1685 OA          19.6803    19.3573    -1.5265 OA            1 RES     
    1686 CH2         20.2032    19.6884    -5.3827 CH2           1 RES     
    1687 CH1         19.7597    20.7382    -6.4184 CH1           1 RES     
    1688 OE          20.9454    21.3260    -7.0584 OE            1 RES     
    1689 C           20.5283    20.8741    -8.4265 C             1 RES     
    1690 O           19.5011    20.2423    -8.6685 O             1 RES     
    1691 CH2         21.6551    21.1692    -9.2125 CH2           1 RES     
    1692 CH2         21.2653    20.5757   -10.5790 CH2           1 RES     
    1693 CH2         22.4696    20.6534   -11.5357 CH2           1 RES     
    1694 CH2         22.0798    20.0599   -12.9022 CH2           1 RES     
    1695 CH2         23.2842    20.1376   -13.8588 CH2           1 RES     
    1696 CH2         22.8943    19.5441   -15.2253 CH2           1 RES     
    1697 CH2         24.0987    19.6217   -16.1820 CH2           1 RES     
    1698 CH2         23.7088    19.0282   -17.5485 CH2           1 RES     
    1699 CH2         24.9132    19.1059   -18.5051 CH2           1 RES     
    1700 CH2         24.5234    18.5124   -19.8716 CH2           1 RES     
    1701 CH2         25.7277    18.5901   -20.8282 CH2           1 RES     
    1702 CH2         25.3379    17.9966   -22.1948 CH2           1 RES     
    1703 CH2         26.5422    18.0743   -23.1514 CH2           1 RES     
    1704 CH2         26.1524    17.4808   -24.5179 CH2           1 RES     
    1705 CH2         27.3567    17.5584   -25.4745 CH2           1 RES     
    1706 CH2         26.9669    16.9649   -26.8411 CH2           1 RES     
    1707 CH3         28.1165    17.0391   -27.7542 CH3           1 RES     
    1708 CH2         18.8795    20.0643    -7.4874 CH2           1 RES     
    1709 OE          17.6419    19.5855    -6.8682 OE            1 RES     
    1710 C           16.9837    19.0361    -8.0990 C             1 RES     
    1711 O           15.8769    18.4999    -8.1168 O             1 RES     
    1712 CH2         18.0027    19.1164    -9.0633 CH2           1 RES     
    1713 CH2         17.3582    18.4243   -10.2787 CH2           1 RES     
    1714 CH2         18.4075    18.2626   -11.3943 CH2           1 RES     
    1715 CH2         17.7630    17.5705   -12.6097 CH2           1 RES     
    1716 CH2         18.8122    17.4088   -13.7253 CH2           1 RES     
    1717 CH2         18.1678    16.7167   -14.9407 CH2           1 RES     
    1718 CH2         19.2170    16.5549   -16.0563 CH2           1 RES     
    1719 CH2         18.5726    15.8628   -17.2717 CH2           1 RES     
    1720 CH2         19.6218    15.7011   -18.3873 CH2           1 RES     
    1721 CH2         18.9773    15.0090   -19.6028 CH2           1 RES     
    1722 CH2         20.0266    14.8473   -20.7183 CH2           1 RES     
    1723 CH2         19.3821    14.1552   -21.9338 CH2           1 RES     
    1724 CH2         20.4313    13.9935   -23.0494 CH2           1 RES     
    1725 CH2         19.7869    13.3013   -24.2648 CH2           1 RES     
    1726 CH2         20.8361    13.1396   -25.3804 CH2           1 RES     
    1727 CH2         20.1917    12.4475   -26.5958 CH2           1 RES     
    1728 CH3         21.1932    12.2931   -27.6607 CH3           1 RES     
    1729 CH3         12.2433    10.5790   -21.1623 CH3           1 RES     
    1730 CH2          6.2453    10.8090    -4.6711 CH2           1 RES     
    1731 CH2          6.7150    11.6775    -5.8529 CH2           1 RES     
    1732 CH2          7.1047    10.7702    -7.0346 CH2           1 RES     
    1733 CH2          7.5744    11.6388    -8.2164 CH2           1 RES     
    1734 CH2          7.9641    10.7315    -9.3982 CH2           1 RES     
    1735 CH2          8.4338    11.6000   -10.5800 CH2           1 RES     
    1736 CH2          8.8235    10.6927   -11.7618 CH2           1 RES     
    1737 CH2          9.2932    11.5613   -12.9436 CH2           1 RES     
    1738 CH2          9.6829    10.6540   -14.1253 CH2           1 RES     
    1739 CH2         10.1526    11.5225   -15.3071 CH2           1 RES     
    1740 CH2         10.5422    10.6152   -16.4889 CH2           1 RES     
    1741 CH2         11.0120    11.4838   -17.6707 CH2           1 RES     
    1742 CH2         11.4016    10.5765   -18.8525 CH2           1 RES     
    1743 CH2         11.8714    11.4450   -20.0343 CH2           1 RES     
    1744 O            5.9537    12.8724    -3.5630 O             1 RES     
    1745 C            5.8896    11.6440    -3.5661 C             1 RES     
    1746 OA           5.4772    10.9545    -2.5000 OA            1 RES     
    1747 H            5.2655    11.5817    -1.8047 H             1 RES     
    1748 CH3          6.7727    32.6363   -21.1623 CH3           1 RES     
    1749 CH2          0.7711    32.7348    -4.6711 CH2           1 RES     
    1750 CH2          1.2216    33.6134    -5.8529 CH2           1 RES     
    1751 CH2          1.6311    32.7149    -7.0346 CH2           1 RES     
    1752 CH2          2.0817    33.5935    -8.2164 CH2           1 RES     
    1753 CH2          2.4911    32.6950    -9.3982 CH2           1 RES     
    1754 CH2          2.9417    33.5736   -10.5800 CH2           1 RES     
    1755 CH2          3.3512    32.6751   -11.7618 CH2           1 RES     
    1756 CH2          3.8017    33.5537   -12.9436 CH2           1 RES     
    1757 CH2          4.2112    32.6552   -14.1253 CH2           1 RES     
    1758 CH2          4.6618    33.5338   -15.3071 CH2           1 RES     
    1759 CH2          5.0712    32.6353   -16.4889 CH2           1 RES     
    1760 CH2          5.5218    33.5139   -17.6707 CH2           1 RES     
    1761 CH2          5.9313    32.6154   -18.8525 CH2           1 RES     
    1762 CH2          6.3819    33.4940   -20.0343 CH2           1 RES     
    1763 O            0.4343    34.7913    -3.5630 O             1 RES     
    1764 C            0.3971    33.5618    -3.5661 C             1 RES     
    1765 OA           0.0000    32.8634    -2.5000 OA            1 RES     
    1766 H           -0.2254    33.4858    -1.8047 H             1 RES     
    1767 CH3          6.7406    39.0370   -21.1623 CH3           1 RES     
    1768 CH2          0.7814    38.3181    -4.6711 CH2           1 RES     
    1769 CH2          1.1082    39.2498    -5.8529 CH2           1 RES     
    1770 CH2          1.6361    38.4153    -7.0346 CH2           1 RES     
    1771 CH2          1.9630    39.3471    -8.2164 CH2           1 RES     
    1772 CH2          2.4909    38.5126    -9.3982 CH2           1 RES     
    1773 CH2          2.8177    39.4444   -10.5800 CH2           1 RES     
    1774 CH2          3.3456    38.6099   -11.7618 CH2           1 RES     
    1775 CH2          3.6725    39.5417   -12.9436 CH2           1 RES     
    1776 CH2          4.2004    38.7072   -14.1253 CH2           1 RES     
    1777 CH2          4.5272    39.6389   -15.3071 CH2           1 RES     
    1778 CH2          5.0551    38.8045   -16.4889 CH2           1 RES     
    1779 CH2          5.3820    39.7362   -17.6707 CH2           1 RES     
    1780 CH2          5.9099    38.9018   -18.8525 CH2           1 RES     
    1781 CH2          6.2367    39.8335   -20.0343 CH2           1 RES     
    1782 O            0.1680    40.3096    -3.5630 O             1 RES     
    1783 C            0.2984    39.0866    -3.5661 C             1 RES     
    1784 OA           0.0000    38.3406    -2.5000 OA            1 RES     
    1785 H           -0.3080    38.9265    -1.8047 H             1 RES     
    1786 CH3         28.5903     4.3456   -21.1623 CH3           1 RES     
    1787 CH2         22.6558     5.2466    -4.6711 CH2           1 RES     
    1788 CH2         23.2199     6.0570    -5.8529 CH2           1 RES     
    1789 CH2         23.5054     5.1117    -7.0346 CH2           1 RES     
    1790 CH2         24.0696     5.9221    -8.2164 CH2           1 RES     
    1791 CH2         24.3551     4.9769    -9.3982 CH2           1 RES     
    1792 CH2         24.9192     5.7873   -10.5800 CH2           1 RES     
    1793 CH2         25.2047     4.8420   -11.7618 CH2           1 RES     
    1794 CH2         25.7688     5.6524   -12.9436 CH2           1 RES     
    1795 CH2         26.0543     4.7072   -14.1253 CH2           1 RES     
    1796 CH2         26.6185     5.5175   -15.3071 CH2           1 RES     
    1797 CH2         26.9040     4.5723   -16.4889 CH2           1 RES     
    1798 CH2         27.4681     5.3827   -17.6707 CH2           1 RES     
    1799 CH2         27.7536     4.4375   -18.8525 CH2           1 RES     
    1800 CH2         28.3177     5.2478   -20.0343 CH2           1 RES     
    1801 O           22.5974     7.3296    -3.5630 O             1 RES     
    1802 C           22.3959     6.1162    -3.5661 C             1 RES     
    1803 OA          21.9089     5.4772    -2.5000 OA            1 RES     
    1804 H           21.7689     6.1242    -1.8047 H             1 RES     
    1805 CH3         45.0873    22.5434   -21.1623 CH3           1 RES     
    1806 CH2         39.1217    21.8792    -4.6711 CH2           1 RES     
    1807 CH2         39.4571    22.8079    -5.8529 CH2           1 RES     
    1808 CH2         39.9773    21.9686    -7.0346 CH2           1 RES     
    1809 CH2         40.3127    22.8973    -8.2164 CH2           1 RES     
    1810 CH2         40.8329    22.0581    -9.3982 CH2           1 RES     
    1811 CH2         41.1683    22.9868   -10.5800 CH2           1 RES     
    1812 CH2         41.6885    22.1475   -11.7618 CH2           1 RES     
    1813 CH2         42.0239    23.0762   -12.9436 CH2           1 RES     
    1814 CH2         42.5441    22.2369   -14.1253 CH2           1 RES     
    1815 CH2         42.8796    23.1656   -15.3071 CH2           1 RES     
    1816 CH2         43.3998    22.3264   -16.4889 CH2           1 RES     
    1817 CH2         43.7352    23.2551   -17.6707 CH2           1 RES     
    1818 CH2         44.2554    22.4158   -18.8525 CH2           1 RES     
    1819 CH2         44.5908    23.3445   -20.0343 CH2           1 RES     
    1820 O           38.5267    23.8763    -3.5630 O             1 RES     
    1821 C           38.6458    22.6521    -3.5661 C             1 RES     
    1822 OA          38.3406    21.9089    -2.5000 OA            1 RES     
    1823 H           38.0380    22.4977    -1.8047 H             1 RES     
    1824 CH3         34.0056    25.9357   -21.1623 CH3           1 RES     
    1825 CH2         28.1211    27.1200    -4.6711 CH2           1 RES     
    1826 CH2         28.7234    27.9024    -5.8529 CH2           1 RES     
    1827 CH2         28.9633    26.9446    -7.0346 CH2           1 RES     
    1828 CH2         29.5656    27.7270    -8.2164 CH2           1 RES     
    1829 CH2         29.8055    26.7692    -9.3982 CH2           1 RES     
    1830 CH2         30.4078    27.5516   -10.5800 CH2           1 RES     
    1831 CH2         30.6477    26.5938   -11.7618 CH2           1 RES     
    1832 CH2         31.2500    27.3762   -12.9436 CH2           1 RES     
    1833 CH2         31.4899    26.4184   -14.1253 CH2           1 RES     
    1834 CH2         32.0922    27.2008   -15.3071 CH2           1 RES     
    1835 CH2         32.3321    26.2430   -16.4889 CH2           1 RES     
    1836 CH2         32.9344    27.0254   -17.6707 CH2           1 RES     
    1837 CH2         33.1743    26.0676   -18.8525 CH2           1 RES     
    1838 CH2         33.7766    26.8500   -20.0343 CH2           1 RES     
    1839 O           28.1626    29.2034    -3.5630 O             1 RES     
    1840 C           27.9032    28.0011    -3.5661 C             1 RES     
    1841 OA          27.3861    27.3861    -2.5000 OA            1 RES     
    1842 H           27.2772    28.0391    -1.8047 H             1 RES     
    1843 CH3          6.6769    26.2284   -21.1623 CH3           1 RES     
    1844 CH2          0.7460    27.1526    -4.6711 CH2           1 RES     
    1845 CH2          1.3133    27.9607    -5.8529 CH2           1 RES     
    1846 CH2          1.5951    27.0144    -7.0346 CH2           1 RES     
    1847 CH2          2.1624    27.8226    -8.2164 CH2           1 RES     
    1848 CH2          2.4442    26.8762    -9.3982 CH2           1 RES     
    1849 CH2          3.0115    27.6844   -10.5800 CH2           1 RES     
    1850 CH2          3.2933    26.7381   -11.7618 CH2           1 RES     
    1851 CH2          3.8606    27.5462   -12.9436 CH2           1 RES     
    1852 CH2          4.1424    26.5999   -14.1253 CH2           1 RES     
    1853 CH2          4.7097    27.4081   -15.3071 CH2           1 RES     
    1854 CH2          4.9915    26.4617   -16.4889 CH2           1 RES     
    1855 CH2          5.5588    27.2699   -17.6707 CH2           1 RES     
    1856 CH2          5.8406    26.3235   -18.8525 CH2           1 RES     
    1857 CH2          6.4079    27.1317   -20.0343 CH2           1 RES     
    1858 O            0.6957    29.2358    -3.5630 O             1 RES     
    1859 C            0.4895    28.0232    -3.5661 C             1 RES     
    1860 OA           0.0000    27.3861    -2.5000 OA            1 RES     
    1861 H           -0.1375    28.0336    -1.8047 H             1 RES     
    1862 CH3         23.1004    -1.2037   -21.1623 CH3           1 RES     
    1863 CH2         17.1760    -0.2387    -4.6711 CH2           1 RES     
    1864 CH2         17.7489     0.5655    -5.8529 CH2           1 RES     
    1865 CH2         18.0242    -0.3827    -7.0346 CH2           1 RES     
    1866 CH2         18.5970     0.4215    -8.2164 CH2           1 RES     
    1867 CH2         18.8723    -0.5267    -9.3982 CH2           1 RES     
    1868 CH2         19.4452     0.2775   -10.5800 CH2           1 RES     
    1869 CH2         19.7204    -0.6708   -11.7618 CH2           1 RES     
    1870 CH2         20.2933     0.1335   -12.9436 CH2           1 RES     
    1871 CH2         20.5685    -0.8148   -14.1253 CH2           1 RES     
    1872 CH2         21.1414    -0.0105   -15.3071 CH2           1 RES     
    1873 CH2         21.4167    -0.9588   -16.4889 CH2           1 RES     
    1874 CH2         21.9895    -0.1545   -17.6707 CH2           1 RES     
    1875 CH2         22.2648    -1.1028   -18.8525 CH2           1 RES     
    1876 CH2         22.8377    -0.2986   -20.0343 CH2           1 RES     
    1877 O           17.1401     1.8449    -3.5630 O             1 RES     
    1878 C           16.9256     0.6337    -3.5661 C             1 RES     
    1879 OA          16.4317     0.0000    -2.5000 OA            1 RES     
    1880 H           16.2986     0.6485    -1.8047 H             1 RES     
    1881 CH3         34.1506    38.7438   -21.1623 CH3           1 RES     
    1882 CH2         28.1658    38.2842    -4.6711 CH2           1 RES     
    1883 CH2         28.5328    39.2009    -5.8529 CH2           1 RES     
    1884 CH2         29.0240    38.3443    -7.0346 CH2           1 RES     
    1885 CH2         29.3909    39.2610    -8.2164 CH2           1 RES     
    1886 CH2         29.8821    38.4044    -9.3982 CH2           1 RES     
    1887 CH2         30.2491    39.3211   -10.5800 CH2           1 RES     
    1888 CH2         30.7403    38.4645   -11.7618 CH2           1 RES     
    1889 CH2         31.1073    39.3812   -12.9436 CH2           1 RES     
    1890 CH2         31.5985    38.5246   -14.1253 CH2           1 RES     
    1891 CH2         31.9654    39.4413   -15.3071 CH2           1 RES     
    1892 CH2         32.4566    38.5847   -16.4889 CH2           1 RES     
    1893 CH2         32.8236    39.5014   -17.6707 CH2           1 RES     
    1894 CH2         33.3148    38.6448   -18.8525 CH2           1 RES     
    1895 CH2         33.6818    39.5615   -20.0343 CH2           1 RES     
    1896 O           27.6394    40.3005    -3.5630 O             1 RES     
    1897 C           27.7166    39.0729    -3.5661 C             1 RES     
    1898 OA          27.3861    38.3406    -2.5000 OA            1 RES     
    1899 H           27.1039    38.9394    -1.8047 H             1 RES     
    1900 CH3         12.0794    34.3907   -21.1623 CH3           1 RES     
    1901 CH2          6.2554    32.9380    -4.6711 CH2           1 RES     
    1902 CH2          6.4641    33.9031    -5.8529 CH2           1 RES     
    1903 CH2          7.0914    33.1405    -7.0346 CH2           1 RES     
    1904 CH2          7.3002    34.1056    -8.2164 CH2           1 RES     
    1905 CH2          7.9275    33.3431    -9.3982 CH2           1 RES     
    1906 CH2          8.1363    34.3082   -10.5800 CH2           1 RES     
    1907 CH2          8.7636    33.5457   -11.7618 CH2           1 RES     
    1908 CH2          8.9723    34.5108   -12.9436 CH2           1 RES     
    1909 CH2          9.5997    33.7483   -14.1253 CH2           1 RES     
    1910 CH2          9.8084    34.7134   -15.3071 CH2           1 RES     
    1911 CH2         10.4357    33.9508   -16.4889 CH2           1 RES     
    1912 CH2         10.6445    34.9159   -17.6707 CH2           1 RES     
    1913 CH2         11.2718    34.1534   -18.8525 CH2           1 RES     
    1914 CH2         11.4806    35.1185   -20.0343 CH2           1 RES     
    1915 O            5.3996    34.8380    -3.5630 O             1 RES     
    1916 C            5.6808    33.6406    -3.5661 C             1 RES     
    1917 OA           5.4772    32.8634    -2.5000 OA            1 RES     
    1918 H            5.0989    33.4066    -1.8047 H             1 RES     
    1919 CH3         33.9609    34.5043   -21.1623 CH3           1 RES     
    1920 CH2         28.1629    32.9514    -4.6711 CH2           1 RES     
    1921 CH2         28.3549    33.9199    -5.8529 CH2           1 RES     
    1922 CH2         28.9953    33.1683    -7.0346 CH2           1 RES     
    1923 CH2         29.1874    34.1369    -8.2164 CH2           1 RES     
    1924 CH2         29.8278    33.3853    -9.3982 CH2           1 RES     
    1925 CH2         30.0198    34.3539   -10.5800 CH2           1 RES     
    1926 CH2         30.6602    33.6023   -11.7618 CH2           1 RES     
    1927 CH2         30.8523    34.5708   -12.9436 CH2           1 RES     
    1928 CH2         31.4927    33.8193   -14.1253 CH2           1 RES     
    1929 CH2         31.6847    34.7878   -15.3071 CH2           1 RES     
    1930 CH2         32.3251    34.0362   -16.4889 CH2           1 RES     
    1931 CH2         32.5172    35.0048   -17.6707 CH2           1 RES     
    1932 CH2         33.1576    34.2532   -18.8525 CH2           1 RES     
    1933 CH2         33.3497    35.2218   -20.0343 CH2           1 RES     
    1934 O           27.2745    34.8364    -3.5630 O             1 RES     
    1935 C           27.5762    33.6440    -3.5661 C             1 RES     
    1936 OA          27.3861    32.8634    -2.5000 OA            1 RES     
    1937 H           26.9985    33.4000    -1.8047 H             1 RES     
    1938 CH3         17.6687    -0.9166   -21.1623 CH3           1 RES     
    1939 CH2         11.7084    -0.2066    -4.6711 CH2           1 RES     
    1940 CH2         12.2462     0.6215    -5.8529 CH2           1 RES     
    1941 CH2         12.5619    -0.3141    -7.0346 CH2           1 RES     
    1942 CH2         13.0997     0.5140    -8.2164 CH2           1 RES     
    1943 CH2         13.4154    -0.4216    -9.3982 CH2           1 RES     
    1944 CH2         13.9533     0.4065   -10.5800 CH2           1 RES     
    1945 CH2         14.2689    -0.5291   -11.7618 CH2           1 RES     
    1946 CH2         14.8068     0.2990   -12.9436 CH2           1 RES     
    1947 CH2         15.1225    -0.6366   -14.1253 CH2           1 RES     
    1948 CH2         15.6603     0.1915   -15.3071 CH2           1 RES     
    1949 CH2         15.9760    -0.7441   -16.4889 CH2           1 RES     
    1950 CH2         16.5138     0.0840   -17.6707 CH2           1 RES     
    1951 CH2         16.8295    -0.8516   -18.8525 CH2           1 RES     
    1952 CH2         17.3673    -0.0236   -20.0343 CH2           1 RES     
    1953 O           11.5831     1.8736    -3.5630 O             1 RES     
    1954 C           11.4207     0.6543    -3.5661 C             1 RES     
    1955 OA          10.9545     0.0000    -2.5000 OA            1 RES     
    1956 H           10.7937     0.6422    -1.8047 H             1 RES     
    1957 CH3         23.2010    27.0743   -21.1623 CH3           1 RES     
    1958 CH2         17.2011    27.2479    -4.6711 CH2           1 RES     
    1959 CH2         17.6626    28.1208    -5.8529 CH2           1 RES     
    1960 CH2         18.0608    27.2172    -7.0346 CH2           1 RES     
    1961 CH2         18.5223    28.0901    -8.2164 CH2           1 RES     
    1962 CH2         18.9205    27.1866    -9.3982 CH2           1 RES     
    1963 CH2         19.3820    28.0595   -10.5800 CH2           1 RES     
    1964 CH2         19.7802    27.1559   -11.7618 CH2           1 RES     
    1965 CH2         20.2418    28.0288   -12.9436 CH2           1 RES     
    1966 CH2         20.6399    27.1252   -14.1253 CH2           1 RES     
    1967 CH2         21.1015    27.9981   -15.3071 CH2           1 RES     
    1968 CH2         21.4997    27.0946   -16.4889 CH2           1 RES     
    1969 CH2         21.9612    27.9675   -17.6707 CH2           1 RES     
    1970 CH2         22.3594    27.0639   -18.8525 CH2           1 RES     
    1971 CH2         22.8209    27.9368   -20.0343 CH2           1 RES     
    1972 O           16.8901    29.3084    -3.5630 O             1 RES     
    1973 C           16.8375    28.0796    -3.5661 C             1 RES     
    1974 OA          16.4317    27.3861    -2.5000 OA            1 RES     
    1975 H           16.2141    28.0113    -1.8047 H             1 RES     
    1976 CH3         34.0469    17.6789   -21.1623 CH3           1 RES     
    1977 CH2         28.1667    16.4734    -4.6711 CH2           1 RES     
    1978 CH2         28.4160    17.4288    -5.8529 CH2           1 RES     
    1979 CH2         29.0106    16.6405    -7.0346 CH2           1 RES     
    1980 CH2         29.2599    17.5959    -8.2164 CH2           1 RES     
    1981 CH2         29.8545    16.8076    -9.3982 CH2           1 RES     
    1982 CH2         30.1038    17.7630   -10.5800 CH2           1 RES     
    1983 CH2         30.6984    16.9747   -11.7618 CH2           1 RES     
    1984 CH2         30.9477    17.9301   -12.9436 CH2           1 RES     
    1985 CH2         31.5423    17.1418   -14.1253 CH2           1 RES     
    1986 CH2         31.7915    18.0972   -15.3071 CH2           1 RES     
    1987 CH2         32.3861    17.3089   -16.4889 CH2           1 RES     
    1988 CH2         32.6354    18.2643   -17.6707 CH2           1 RES     
    1989 CH2         33.2300    17.4760   -18.8525 CH2           1 RES     
    1990 CH2         33.4793    18.4314   -20.0343 CH2           1 RES     
    1991 O           27.3920    18.4079    -3.5630 O             1 RES     
    1992 C           27.6223    17.1996    -3.5661 C             1 RES     
    1993 OA          27.3861    16.4317    -2.5000 OA            1 RES     
    1994 H           27.0311    16.9904    -1.8047 H             1 RES     
    1995 CH3         23.0294    17.9780   -21.1623 CH3           1 RES     
    1996 CH2         17.2096    16.5085    -4.6711 CH2           1 RES     
    1997 CH2         17.4156    17.4742    -5.8529 CH2           1 RES     
    1998 CH2         18.0451    16.7135    -7.0346 CH2           1 RES     
    1999 CH2         18.2510    17.6792    -8.2164 CH2           1 RES     
    2000 CH2         18.8806    16.9185    -9.3982 CH2           1 RES     
    2001 CH2         19.0865    17.8842   -10.5800 CH2           1 RES     
    2002 CH2         19.7161    17.1235   -11.7618 CH2           1 RES     
    2003 CH2         19.9220    18.0892   -12.9436 CH2           1 RES     
    2004 CH2         20.5516    17.3284   -14.1253 CH2           1 RES     
    2005 CH2         20.7575    18.2941   -15.3071 CH2           1 RES     
    2006 CH2         21.3870    17.5334   -16.4889 CH2           1 RES     
    2007 CH2         21.5930    18.4991   -17.6707 CH2           1 RES     
    2008 CH2         22.2225    17.7384   -18.8525 CH2           1 RES     
    2009 CH2         22.4285    18.7041   -20.0343 CH2           1 RES     
    2010 O           16.3484    18.4061    -3.5630 O             1 RES     
    2011 C           16.6330    17.2095    -3.5661 C             1 RES     
    2012 OA          16.4317    16.4317    -2.5000 OA            1 RES     
    2013 H           16.0518    16.9738    -1.8047 H             1 RES     
    2014 CH3         34.0536    12.1652   -21.1623 CH3           1 RES     
    2015 CH2         28.1669    10.9919    -4.6711 CH2           1 RES     
    2016 CH2         28.4215    11.9459    -5.8529 CH2           1 RES     
    2017 CH2         29.0117    11.1544    -7.0346 CH2           1 RES     
    2018 CH2         29.2662    12.1084    -8.2164 CH2           1 RES     
    2019 CH2         29.8565    11.3168    -9.3982 CH2           1 RES     
    2020 CH2         30.1110    12.2709   -10.5800 CH2           1 RES     
    2021 CH2         30.7013    11.4793   -11.7618 CH2           1 RES     
    2022 CH2         30.9558    12.4334   -12.9436 CH2           1 RES     
    2023 CH2         31.5461    11.6418   -14.1253 CH2           1 RES     
    2024 CH2         31.8006    12.5959   -15.3071 CH2           1 RES     
    2025 CH2         32.3909    11.8043   -16.4889 CH2           1 RES     
    2026 CH2         32.6454    12.7583   -17.6707 CH2           1 RES     
    2027 CH2         33.2356    11.9668   -18.8525 CH2           1 RES     
    2028 CH2         33.4902    12.9208   -20.0343 CH2           1 RES     
    2029 O           27.4028    12.9306    -3.5630 O             1 RES     
    2030 C           27.6265    11.7211    -3.5661 C             1 RES     
    2031 OA          27.3861    10.9545    -2.5000 OA            1 RES     
    2032 H           27.0342    11.5151    -1.8047 H             1 RES     
    2033 CH3         45.0573    37.4425   -21.1623 CH3           1 RES     
    2034 CH2         39.0951    38.1361    -4.6711 CH2           1 RES     
    2035 CH2         39.6306    38.9657    -5.8529 CH2           1 RES     
    2036 CH2         39.9489    38.0309    -7.0346 CH2           1 RES     
    2037 CH2         40.4844    38.8605    -8.2164 CH2           1 RES     
    2038 CH2         40.8027    37.9258    -9.3982 CH2           1 RES     
    2039 CH2         41.3382    38.7554   -10.5800 CH2           1 RES     
    2040 CH2         41.6565    37.8206   -11.7618 CH2           1 RES     
    2041 CH2         42.1921    38.6502   -12.9436 CH2           1 RES     
    2042 CH2         42.5103    37.7155   -14.1253 CH2           1 RES     
    2043 CH2         43.0459    38.5451   -15.3071 CH2           1 RES     
    2044 CH2         43.3642    37.6103   -16.4889 CH2           1 RES     
    2045 CH2         43.8997    38.4399   -17.6707 CH2           1 RES     
    2046 CH2         44.2180    37.5052   -18.8525 CH2           1 RES     
    2047 CH2         44.7535    38.3348   -20.0343 CH2           1 RES     
    2048 O           38.9641    40.2159    -3.5630 O             1 RES     
    2049 C           38.8051    38.9962    -3.5661 C             1 RES     
    2050 OA          38.3406    38.3406    -2.5000 OA            1 RES     
    2051 H           38.1781    38.9823    -1.8047 H             1 RES     
    2052 CH3         33.9278    20.1402   -21.1623 CH3           1 RES     
    2053 CH2         28.1074    21.6075    -4.6711 CH2           1 RES     
    2054 CH2         28.7468    22.3599    -5.8529 CH2           1 RES     
    2055 CH2         28.9401    21.3916    -7.0346 CH2           1 RES     
    2056 CH2         29.5796    22.1440    -8.2164 CH2           1 RES     
    2057 CH2         29.7729    21.1757    -9.3982 CH2           1 RES     
    2058 CH2         30.4123    21.9281   -10.5800 CH2           1 RES     
    2059 CH2         30.6056    20.9598   -11.7618 CH2           1 RES     
    2060 CH2         31.2450    21.7122   -12.9436 CH2           1 RES     
    2061 CH2         31.4383    20.7439   -14.1253 CH2           1 RES     
    2062 CH2         32.0778    21.4963   -15.3071 CH2           1 RES     
    2063 CH2         32.2711    20.5280   -16.4889 CH2           1 RES     
    2064 CH2         32.9105    21.2804   -17.6707 CH2           1 RES     
    2065 CH2         33.1038    20.3121   -18.8525 CH2           1 RES     
    2066 CH2         33.7432    21.0645   -20.0343 CH2           1 RES     
    2067 O           28.2495    23.6865    -3.5630 O             1 RES     
    2068 C           27.9323    22.4981    -3.5661 C             1 RES     
    2069 OA          27.3861    21.9089    -2.5000 OA            1 RES     
    2070 H           27.3089    22.5663    -1.8047 H             1 RES     
    2071 CH3          6.5963    20.3565   -21.1623 CH3           1 RES     
    2072 CH2          0.7308    21.6314    -4.6711 CH2           1 RES     
    2073 CH2          1.3451    22.4045    -5.8529 CH2           1 RES     
    2074 CH2          1.5702    21.4431    -7.0346 CH2           1 RES     
    2075 CH2          2.1845    22.2161    -8.2164 CH2           1 RES     
    2076 CH2          2.4096    21.2547    -9.3982 CH2           1 RES     
    2077 CH2          3.0239    22.0277   -10.5800 CH2           1 RES     
    2078 CH2          3.2490    21.0663   -11.7618 CH2           1 RES     
    2079 CH2          3.8633    21.8394   -12.9436 CH2           1 RES     
    2080 CH2          4.0884    20.8779   -14.1253 CH2           1 RES     
    2081 CH2          4.7027    21.6510   -15.3071 CH2           1 RES     
    2082 CH2          4.9278    20.6896   -16.4889 CH2           1 RES     
    2083 CH2          5.5421    21.4626   -17.6707 CH2           1 RES     
    2084 CH2          5.7671    20.5012   -18.8525 CH2           1 RES     
    2085 CH2          6.3815    21.2743   -20.0343 CH2           1 RES     
    2086 O            0.8044    23.7140    -3.5630 O             1 RES     
    2087 C            0.5265    22.5158    -3.5661 C             1 RES     
    2088 OA           0.0000    21.9089    -2.5000 OA            1 RES     
    2089 H           -0.0988    22.5635    -1.8047 H             1 RES     
    2090 CH3         12.1616    28.4996   -21.1623 CH3           1 RES     
    2091 CH2          6.2585    27.4122    -4.6711 CH2           1 RES     
    2092 CH2          6.5269    28.3624    -5.8529 CH2           1 RES     
    2093 CH2          7.1056    27.5623    -7.0346 CH2           1 RES     
    2094 CH2          7.3740    28.5126    -8.2164 CH2           1 RES     
    2095 CH2          7.9526    27.7125    -9.3982 CH2           1 RES     
    2096 CH2          8.2210    28.6627   -10.5800 CH2           1 RES     
    2097 CH2          8.7997    27.8626   -11.7618 CH2           1 RES     
    2098 CH2          9.0681    28.8129   -12.9436 CH2           1 RES     
    2099 CH2          9.6467    28.0128   -14.1253 CH2           1 RES     
    2100 CH2          9.9151    28.9630   -15.3071 CH2           1 RES     
    2101 CH2         10.4938    28.1629   -16.4889 CH2           1 RES     
    2102 CH2         10.7622    29.1132   -17.6707 CH2           1 RES     
    2103 CH2         11.3409    28.3131   -18.8525 CH2           1 RES     
    2104 CH2         11.6093    29.2633   -20.0343 CH2           1 RES     
    2105 O            5.5227    29.3618    -3.5630 O             1 RES     
    2106 C            5.7287    28.1492    -3.5661 C             1 RES     
    2107 OA           5.4772    27.3861    -2.5000 OA            1 RES     
    2108 H            5.1335    27.9518    -1.8047 H             1 RES     
    2109 CH3         28.6851    21.9782   -21.1623 CH3           1 RES     
    2110 CH2         22.6848    21.8141    -4.6711 CH2           1 RES     
    2111 CH2         23.0966    22.7116    -5.8529 CH2           1 RES     
    2112 CH2         23.5449    21.8319    -7.0346 CH2           1 RES     
    2113 CH2         23.9567    22.7293    -8.2164 CH2           1 RES     
    2114 CH2         24.4050    21.8496    -9.3982 CH2           1 RES     
    2115 CH2         24.8167    22.7471   -10.5800 CH2           1 RES     
    2116 CH2         25.2651    21.8673   -11.7618 CH2           1 RES     
    2117 CH2         25.6768    22.7648   -12.9436 CH2           1 RES     
    2118 CH2         26.1252    21.8850   -14.1253 CH2           1 RES     
    2119 CH2         26.5369    22.7825   -15.3071 CH2           1 RES     
    2120 CH2         26.9853    21.9028   -16.4889 CH2           1 RES     
    2121 CH2         27.3970    22.8002   -17.6707 CH2           1 RES     
    2122 CH2         27.8454    21.9205   -18.8525 CH2           1 RES     
    2123 CH2         28.2571    22.8180   -20.0343 CH2           1 RES     
    2124 O           22.2585    23.8540    -3.5630 O             1 RES     
    2125 C           22.2751    22.6241    -3.5661 C             1 RES     
    2126 OA          21.9089    21.9089    -2.5000 OA            1 RES     
    2127 H           21.6565    22.5209    -1.8047 H             1 RES     
    2128 CH3         39.4216    20.2029   -21.1623 CH3           1 RES     
    2129 CH2         33.5875    21.6144    -4.6711 CH2           1 RES     
    2130 CH2         34.2197    22.3729    -5.8529 CH2           1 RES     
    2131 CH2         34.4222    21.4065    -7.0346 CH2           1 RES     
    2132 CH2         35.0544    22.1650    -8.2164 CH2           1 RES     
    2133 CH2         35.2570    21.1986    -9.3982 CH2           1 RES     
    2134 CH2         35.8892    21.9571   -10.5800 CH2           1 RES     
    2135 CH2         36.0918    20.9907   -11.7618 CH2           1 RES     
    2136 CH2         36.7240    21.7492   -12.9436 CH2           1 RES     
    2137 CH2         36.9265    20.7828   -14.1253 CH2           1 RES     
    2138 CH2         37.5587    21.5413   -15.3071 CH2           1 RES     
    2139 CH2         37.7613    20.5748   -16.4889 CH2           1 RES     
    2140 CH2         38.3935    21.3333   -17.6707 CH2           1 RES     
    2141 CH2         38.5961    20.3669   -18.8525 CH2           1 RES     
    2142 CH2         39.2283    21.1254   -20.0343 CH2           1 RES     
    2143 O           33.7097    23.6947    -3.5630 O             1 RES     
    2144 C           33.4039    22.5033    -3.5661 C             1 RES     
    2145 OA          32.8634    21.9089    -2.5000 OA            1 RES     
    2146 H           32.7799    22.5656    -1.8047 H             1 RES     
    2147 CH3         39.5646    28.3935   -21.1623 CH3           1 RES     
    2148 CH2         33.6449    27.3998    -4.6711 CH2           1 RES     
    2149 CH2         33.9284    28.3456    -5.8529 CH2           1 RES     
    2150 CH2         34.4943    27.5365    -7.0346 CH2           1 RES     
    2151 CH2         34.7777    28.4823    -8.2164 CH2           1 RES     
    2152 CH2         35.3436    27.6732    -9.3982 CH2           1 RES     
    2153 CH2         35.6270    28.6191   -10.5800 CH2           1 RES     
    2154 CH2         36.1929    27.8099   -11.7618 CH2           1 RES     
    2155 CH2         36.4764    28.7558   -12.9436 CH2           1 RES     
    2156 CH2         37.0423    27.9466   -14.1253 CH2           1 RES     
    2157 CH2         37.3257    28.8925   -15.3071 CH2           1 RES     
    2158 CH2         37.8916    28.0833   -16.4889 CH2           1 RES     
    2159 CH2         38.1750    29.0292   -17.6707 CH2           1 RES     
    2160 CH2         38.7410    28.2200   -18.8525 CH2           1 RES     
    2161 CH2         39.0244    29.1659   -20.0343 CH2           1 RES     
    2162 O           32.9401    29.3609    -3.5630 O             1 RES     
    2163 C           33.1269    28.1451    -3.5661 C             1 RES     
    2164 OA          32.8634    27.3861    -2.5000 OA            1 RES     
    2165 H           32.5286    27.9572    -1.8047 H             1 RES     
    2166 CH3         17.6413     6.5762   -21.1623 CH3           1 RES     
    2167 CH2         11.7358     5.5016    -4.6711 CH2           1 RES     
    2168 CH2         12.0062     6.4512    -5.8529 CH2           1 RES     
    2169 CH2         12.5832     5.6499    -7.0346 CH2           1 RES     
    2170 CH2         12.8536     6.5995    -8.2164 CH2           1 RES     
    2171 CH2         13.4305     5.7982    -9.3982 CH2           1 RES     
    2172 CH2         13.7010     6.7479   -10.5800 CH2           1 RES     
    2173 CH2         14.2779     5.9465   -11.7618 CH2           1 RES     
    2174 CH2         14.5484     6.8962   -12.9436 CH2           1 RES     
    2175 CH2         15.1253     6.0948   -14.1253 CH2           1 RES     
    2176 CH2         15.3958     7.0445   -15.3071 CH2           1 RES     
    2177 CH2         15.9727     6.2431   -16.4889 CH2           1 RES     
    2178 CH2         16.2432     7.1928   -17.6707 CH2           1 RES     
    2179 CH2         16.8201     6.3915   -18.8525 CH2           1 RES     
    2180 CH2         17.0906     7.3411   -20.0343 CH2           1 RES     
    2181 O           11.0042     7.4528    -3.5630 O             1 RES     
    2182 C           11.2076     6.2398    -3.5661 C             1 RES     
    2183 OA          10.9545     5.4772    -2.5000 OA            1 RES     
    2184 H           10.6119     6.0437    -1.8047 H             1 RES     
    2185 CH3         23.1173     6.5832   -21.1623 CH3           1 RES     
    2186 CH2         17.2130     5.5024    -4.6711 CH2           1 RES     
    2187 CH2         17.4824     6.4523    -5.8529 CH2           1 RES     
    2188 CH2         18.0602     5.6516    -7.0346 CH2           1 RES     
    2189 CH2         18.3297     6.6015    -8.2164 CH2           1 RES     
    2190 CH2         18.9074     5.8008    -9.3982 CH2           1 RES     
    2191 CH2         19.1769     6.7507   -10.5800 CH2           1 RES     
    2192 CH2         19.7547     5.9500   -11.7618 CH2           1 RES     
    2193 CH2         20.0241     6.8999   -12.9436 CH2           1 RES     
    2194 CH2         20.6019     6.0992   -14.1253 CH2           1 RES     
    2195 CH2         20.8714     7.0491   -15.3071 CH2           1 RES     
    2196 CH2         21.4491     6.2484   -16.4889 CH2           1 RES     
    2197 CH2         21.7186     7.1984   -17.6707 CH2           1 RES     
    2198 CH2         22.2964     6.3976   -18.8525 CH2           1 RES     
    2199 CH2         22.5658     7.3476   -20.0343 CH2           1 RES     
    2200 O           16.4793     7.4529    -3.5630 O             1 RES     
    2201 C           16.6841     6.2400    -3.5661 C             1 RES     
    2202 OA          16.4317     5.4772    -2.5000 OA            1 RES     
    2203 H           16.0886     6.0433    -1.8047 H             1 RES     
    2204 CH3         45.1010    33.3295   -21.1623 CH3           1 RES     
    2205 CH2         39.1207    32.8142    -4.6711 CH2           1 RES     
    2206 CH2         39.4792    33.7343    -5.8529 CH2           1 RES     
    2207 CH2         39.9783    32.8823    -7.0346 CH2           1 RES     
    2208 CH2         40.3368    33.8023    -8.2164 CH2           1 RES     
    2209 CH2         40.8359    32.9504    -9.3982 CH2           1 RES     
    2210 CH2         41.1943    33.8704   -10.5800 CH2           1 RES     
    2211 CH2         41.6934    33.0185   -11.7618 CH2           1 RES     
    2212 CH2         42.0519    33.9385   -12.9436 CH2           1 RES     
    2213 CH2         42.5510    33.0865   -14.1253 CH2           1 RES     
    2214 CH2         42.9095    34.0066   -15.3071 CH2           1 RES     
    2215 CH2         43.4086    33.1546   -16.4889 CH2           1 RES     
    2216 CH2         43.7670    34.0747   -17.6707 CH2           1 RES     
    2217 CH2         44.2662    33.2227   -18.8525 CH2           1 RES     
    2218 CH2         44.6246    34.1428   -20.0343 CH2           1 RES     
    2219 O           38.5756    34.8255    -3.5630 O             1 RES     
    2220 C           38.6642    33.5987    -3.5661 C             1 RES     
    2221 OA          38.3406    32.8634    -2.5000 OA            1 RES     
    2222 H           38.0528    33.4595    -1.8047 H             1 RES     
    2223 CH3         12.0651    18.0195   -21.1623 CH3           1 RES     
    2224 CH2          6.2546    16.5134    -4.6711 CH2           1 RES     
    2225 CH2          6.4545    17.4804    -5.8529 CH2           1 RES     
    2226 CH2          7.0888    16.7237    -7.0346 CH2           1 RES     
    2227 CH2          7.2887    17.6906    -8.2164 CH2           1 RES     
    2228 CH2          7.9230    16.9339    -9.3982 CH2           1 RES     
    2229 CH2          8.1229    17.9009   -10.5800 CH2           1 RES     
    2230 CH2          8.7572    17.1442   -11.7618 CH2           1 RES     
    2231 CH2          8.9571    18.1111   -12.9436 CH2           1 RES     
    2232 CH2          9.5914    17.3544   -14.1253 CH2           1 RES     
    2233 CH2          9.7912    18.3214   -15.3071 CH2           1 RES     
    2234 CH2         10.4256    17.5646   -16.4889 CH2           1 RES     
    2235 CH2         10.6254    18.5316   -17.6707 CH2           1 RES     
    2236 CH2         11.2597    17.7749   -18.8525 CH2           1 RES     
    2237 CH2         11.4596    18.7419   -20.0343 CH2           1 RES     
    2238 O            5.3815    18.4056    -3.5630 O             1 RES     
    2239 C            5.6736    17.2108    -3.5661 C             1 RES     
    2240 OA           5.4772    16.4317    -2.5000 OA            1 RES     
    2241 H            5.0940    16.9714    -1.8047 H             1 RES     
    2242 CH3         12.2437     0.3695   -21.1623 CH3           1 RES     
    2243 CH2          6.2566    -0.0603    -4.6711 CH2           1 RES     
    2244 CH2          6.6282     0.8546    -5.8529 CH2           1 RES     
    2245 CH2          7.1151    -0.0045    -7.0346 CH2           1 RES     
    2246 CH2          7.4866     0.9104    -8.2164 CH2           1 RES     
    2247 CH2          7.9735     0.0514    -9.3982 CH2           1 RES     
    2248 CH2          8.3451     0.9662   -10.5800 CH2           1 RES     
    2249 CH2          8.8320     0.1072   -11.7618 CH2           1 RES     
    2250 CH2          9.2035     1.0220   -12.9436 CH2           1 RES     
    2251 CH2          9.6904     0.1630   -14.1253 CH2           1 RES     
    2252 CH2         10.0620     1.0779   -15.3071 CH2           1 RES     
    2253 CH2         10.5489     0.2188   -16.4889 CH2           1 RES     
    2254 CH2         10.9204     1.1337   -17.6707 CH2           1 RES     
    2255 CH2         11.4073     0.2747   -18.8525 CH2           1 RES     
    2256 CH2         11.7789     1.1895   -20.0343 CH2           1 RES     
    2257 O            5.7403     1.9586    -3.5630 O             1 RES     
    2258 C            5.8114     0.7307    -3.5661 C             1 RES     
    2259 OA           5.4772     0.0000    -2.5000 OA            1 RES     
    2260 H            5.1980     0.6002    -1.8047 H             1 RES     
    2261 CH3         39.5542    17.5059   -21.1623 CH3           1 RES     
    2262 CH2         33.6448    16.4531    -4.6711 CH2           1 RES     
    2263 CH2         33.9187    17.4018    -5.8529 CH2           1 RES     
    2264 CH2         34.4927    16.5983    -7.0346 CH2           1 RES     
    2265 CH2         34.7667    17.5470    -8.2164 CH2           1 RES     
    2266 CH2         35.3406    16.7435    -9.3982 CH2           1 RES     
    2267 CH2         35.6146    17.6921   -10.5800 CH2           1 RES     
    2268 CH2         36.1885    16.8887   -11.7618 CH2           1 RES     
    2269 CH2         36.4625    17.8373   -12.9436 CH2           1 RES     
    2270 CH2         37.0365    17.0339   -14.1253 CH2           1 RES     
    2271 CH2         37.3104    17.9825   -15.3071 CH2           1 RES     
    2272 CH2         37.8844    17.1790   -16.4889 CH2           1 RES     
    2273 CH2         38.1584    18.1277   -17.6707 CH2           1 RES     
    2274 CH2         38.7323    17.3242   -18.8525 CH2           1 RES     
    2275 CH2         39.0063    18.2729   -20.0343 CH2           1 RES     
    2276 O           32.9204    18.4071    -3.5630 O             1 RES     
    2277 C           33.1193    17.1933    -3.5661 C             1 RES     
    2278 OA          32.8634    16.4317    -2.5000 OA            1 RES     
    2279 H           32.5229    16.9994    -1.8047 H             1 RES     
    2280 CH3         39.6382     5.3286   -21.1623 CH3           1 RES     
    2281 CH2         33.6358     5.3576    -4.6711 CH2           1 RES     
    2282 CH2         34.0762     6.2413    -5.8529 CH2           1 RES     
    2283 CH2         34.4961     5.3476    -7.0346 CH2           1 RES     
    2284 CH2         34.9364     6.2314    -8.2164 CH2           1 RES     
    2285 CH2         35.3563     5.3377    -9.3982 CH2           1 RES     
    2286 CH2         35.7966     6.2214   -10.5800 CH2           1 RES     
    2287 CH2         36.2165     5.3277   -11.7618 CH2           1 RES     
    2288 CH2         36.6569     6.2115   -12.9436 CH2           1 RES     
    2289 CH2         37.0767     5.3178   -14.1253 CH2           1 RES     
    2290 CH2         37.5171     6.2016   -15.3071 CH2           1 RES     
    2291 CH2         37.9369     5.3078   -16.4889 CH2           1 RES     
    2292 CH2         38.3773     6.1916   -17.6707 CH2           1 RES     
    2293 CH2         38.7971     5.2979   -18.8525 CH2           1 RES     
    2294 CH2         39.2375     6.1817   -20.0343 CH2           1 RES     
    2295 O           33.2753     7.4100    -3.5630 O             1 RES     
    2296 C           33.2524     6.1802    -3.5661 C             1 RES     
    2297 OA          32.8634     5.4772    -2.5000 OA            1 RES     
    2298 H           32.6308     6.0970    -1.8047 H             1 RES     
    2299 CH3         12.0191    20.1413   -21.1623 CH3           1 RES     
    2300 CH2          6.1985    21.6076    -4.6711 CH2           1 RES     
    2301 CH2          6.8378    22.3601    -5.8529 CH2           1 RES     
    2302 CH2          7.0313    21.3919    -7.0346 CH2           1 RES     
    2303 CH2          7.6706    22.1444    -8.2164 CH2           1 RES     
    2304 CH2          7.8641    21.1761    -9.3982 CH2           1 RES     
    2305 CH2          8.5034    21.9286   -10.5800 CH2           1 RES     
    2306 CH2          8.6969    20.9603   -11.7618 CH2           1 RES     
    2307 CH2          9.3362    21.7128   -12.9436 CH2           1 RES     
    2308 CH2          9.5296    20.7446   -14.1253 CH2           1 RES     
    2309 CH2         10.1689    21.4971   -15.3071 CH2           1 RES     
    2310 CH2         10.3624    20.5288   -16.4889 CH2           1 RES     
    2311 CH2         11.0017    21.2813   -17.6707 CH2           1 RES     
    2312 CH2         11.1952    20.3130   -18.8525 CH2           1 RES     
    2313 CH2         11.8345    21.0655   -20.0343 CH2           1 RES     
    2314 O            6.3403    23.6867    -3.5630 O             1 RES     
    2315 C            6.0233    22.4982    -3.5661 C             1 RES     
    2316 OA           5.4772    21.9089    -2.5000 OA            1 RES     
    2317 H            5.3999    22.5663    -1.8047 H             1 RES     
    2318 CH3         28.5735    34.0899   -21.1623 CH3           1 RES     
    2319 CH2         22.6896    32.9026    -4.6711 CH2           1 RES     
    2320 CH2         22.9419    33.8573    -5.8529 CH2           1 RES     
    2321 CH2         23.5340    33.0671    -7.0346 CH2           1 RES     
    2322 CH2         23.7863    34.0217    -8.2164 CH2           1 RES     
    2323 CH2         24.3784    33.2316    -9.3982 CH2           1 RES     
    2324 CH2         24.6307    34.1862   -10.5800 CH2           1 RES     
    2325 CH2         25.2228    33.3961   -11.7618 CH2           1 RES     
    2326 CH2         25.4751    34.3507   -12.9436 CH2           1 RES     
    2327 CH2         26.0672    33.5605   -14.1253 CH2           1 RES     
    2328 CH2         26.3195    34.5152   -15.3071 CH2           1 RES     
    2329 CH2         26.9116    33.7250   -16.4889 CH2           1 RES     
    2330 CH2         27.1639    34.6797   -17.6707 CH2           1 RES     
    2331 CH2         27.7560    33.8895   -18.8525 CH2           1 RES     
    2332 CH2         28.0083    34.8441   -20.0343 CH2           1 RES     
    2333 O           21.9209    34.8395    -3.5630 O             1 RES     
    2334 C           22.1475    33.6306    -3.5661 C             1 RES     
    2335 OA          21.9089    32.8634    -2.5000 OA            1 RES     
    2336 H           21.5556    33.4232    -1.8047 H             1 RES     
    2337 CH3         22.6154    10.9545   -56.7654 CH3           1 RES     
    2338 CH3         23.9916    11.6255   -58.5512 CH3           1 RES     
    2339 CH3         22.1538    12.7088   -58.0694 CH3           1 RES     
    2340 NL          23.1569    12.0018   -57.5746 NL            1 RES     
    2341 CH2         23.7794    12.9225   -56.7359 CH2           1 RES     
    2342 CH2         24.9360    12.0712   -56.1801 CH2           1 RES     
    2343 OA          25.9740    13.5742   -52.7280 OA            1 RES     
    2344 P           25.1278    12.7077   -53.7735 P             1 RES     
    2345 OM          25.2602    11.1786   -53.3212 OM            1 RES     
    2346 OM          23.6343    13.2811   -53.7477 OM            1 RES     
    2347 OA          25.7444    12.8873   -55.2389 OA            1 RES     
    2348 CH2         25.3748    13.3837   -51.3827 CH2           1 RES     
    2349 CH1         26.1650    14.2049   -50.3470 CH1           1 RES     
    2350 OE          25.2687    15.1785   -49.7070 OE            1 RES     
    2351 C           25.4961    14.6072   -48.3389 C             1 RES     
    2352 O           26.2288    13.6493   -48.0969 O             1 RES     
    2353 CH2         24.5499    15.2865   -47.5529 CH2           1 RES     
    2354 CH2         24.7012    14.5927   -46.1864 CH2           1 RES     
    2355 CH2         23.6047    15.0968   -45.2298 CH2           1 RES     
    2356 CH2         23.7559    14.4030   -43.8632 CH2           1 RES     
    2357 CH2         22.6594    14.9070   -42.9066 CH2           1 RES     
    2358 CH2         22.8107    14.2133   -41.5401 CH2           1 RES     
    2359 CH2         21.7141    14.7173   -40.5835 CH2           1 RES     
    2360 CH2         21.8654    14.0236   -39.2169 CH2           1 RES     
    2361 CH2         20.7689    14.5276   -38.2603 CH2           1 RES     
    2362 CH2         20.9202    13.8338   -36.8938 CH2           1 RES     
    2363 CH2         19.8236    14.3379   -35.9372 CH2           1 RES     
    2364 CH2         19.9749    13.6441   -34.5707 CH2           1 RES     
    2365 CH2         18.8784    14.1482   -33.6140 CH2           1 RES     
    2366 CH2         19.0296    13.4544   -32.2475 CH2           1 RES     
    2367 CH2         17.9331    13.9585   -31.2909 CH2           1 RES     
    2368 CH2         18.0844    13.2647   -29.9244 CH2           1 RES     
    2369 CH3         17.0377    13.7459   -29.0112 CH3           1 RES     
    2370 CH2         26.7453    13.2603   -49.2780 CH2           1 RES     
    2371 OE          27.7292    12.3699   -49.8972 OE            1 RES     
    2372 C           28.1468    11.6211   -48.6664 C             1 RES     
    2373 O           28.9880    10.7239   -48.6486 O             1 RES     
    2374 CH2         27.2243    12.0612   -47.7022 CH2           1 RES     
    2375 CH2         27.5779    11.1842   -46.4867 CH2           1 RES     
    2376 CH2         26.5404    11.4091   -45.3711 CH2           1 RES     
    2377 CH2         26.8941    10.5321   -44.1557 CH2           1 RES     
    2378 CH2         25.8566    10.7571   -43.0401 CH2           1 RES     
    2379 CH2         26.2102     9.8800   -41.8247 CH2           1 RES     
    2380 CH2         25.1727    10.1050   -40.7091 CH2           1 RES     
    2381 CH2         25.5264     9.2279   -39.4937 CH2           1 RES     
    2382 CH2         24.4889     9.4529   -38.3781 CH2           1 RES     
    2383 CH2         24.8425     8.5758   -37.1627 CH2           1 RES     
    2384 CH2         23.8050     8.8008   -36.0471 CH2           1 RES     
    2385 CH2         24.1587     7.9237   -34.8317 CH2           1 RES     
    2386 CH2         23.1212     8.1487   -33.7161 CH2           1 RES     
    2387 CH2         23.4748     7.2716   -32.5006 CH2           1 RES     
    2388 CH2         22.4373     7.4966   -31.3850 CH2           1 RES     
    2389 CH2         22.7910     6.6195   -30.1696 CH2           1 RES     
    2390 CH3         21.8007     6.8343   -29.1047 CH3           1 RES     
    2391 CH3         17.1382     0.0000   -56.7654 CH3           1 RES     
    2392 CH3         18.1192     1.1754   -58.5512 CH3           1 RES     
    2393 CH3         15.9991     1.4118   -58.0694 CH3           1 RES     
    2394 NL          17.2036     1.1773   -57.5746 NL            1 RES     
    2395 CH2         17.3948     2.2721   -56.7359 CH2           1 RES     
    2396 CH2         18.7986     1.9686   -56.1801 CH2           1 RES     
    2397 OA          19.1307     3.7648   -52.7280 OA            1 RES     
    2398 P           18.7131     2.6278   -53.7735 P             1 RES     
    2399 OM          19.4596     1.2869   -53.3212 OM            1 RES     
    2400 OM          17.1157     2.5398   -53.7477 OM            1 RES     
    2401 OA          19.2022     3.0440   -55.2389 OA            1 RES     
    2402 CH2         18.6619     3.3457   -51.3827 CH2           1 RES     
    2403 CH1         19.0468     4.4184   -50.3470 CH1           1 RES     
    2404 OE          17.8305     4.9400   -49.7070 OE            1 RES     
    2405 C           18.2719     4.5117   -48.3389 C             1 RES     
    2406 O           19.3324     3.9375   -48.0969 O             1 RES     
    2407 CH2         17.1305     4.7443   -47.5529 CH2           1 RES     
    2408 CH2         17.5525     4.1732   -46.1864 CH2           1 RES     
    2409 CH2         16.3457     4.1844   -45.2298 CH2           1 RES     
    2410 CH2         16.7676     3.6133   -43.8632 CH2           1 RES     
    2411 CH2         15.5608     3.6245   -42.9066 CH2           1 RES     
    2412 CH2         15.9828     3.0534   -41.5401 CH2           1 RES     
    2413 CH2         14.7760     3.0646   -40.5835 CH2           1 RES     
    2414 CH2         15.1979     2.4934   -39.2169 CH2           1 RES     
    2415 CH2         13.9911     2.5046   -38.2603 CH2           1 RES     
    2416 CH2         14.4131     1.9335   -36.8938 CH2           1 RES     
    2417 CH2         13.2063     1.9447   -35.9372 CH2           1 RES     
    2418 CH2         13.6282     1.3736   -34.5707 CH2           1 RES     
    2419 CH2         12.4214     1.3848   -33.6140 CH2           1 RES     
    2420 CH2         12.8434     0.8137   -32.2475 CH2           1 RES     
    2421 CH2         11.6366     0.8249   -31.2909 CH2           1 RES     
    2422 CH2         12.0585     0.2537   -29.9244 CH2           1 RES     
    2423 CH3         10.9066     0.2644   -29.0112 CH3           1 RES     
    2424 CH2         19.9628     3.7940   -49.2780 CH2           1 RES     
    2425 OE          21.2250     3.3841   -49.8972 OE            1 RES     
    2426 C           21.9124     2.8718   -48.6664 C             1 RES     
    2427 O           23.0471     2.3974   -48.6486 O             1 RES     
    2428 CH2         20.8905     2.8959   -47.7022 CH2           1 RES     
    2429 CH2         21.5721     2.2404   -46.4867 CH2           1 RES     
    2430 CH2         20.5334     2.0211   -45.3711 CH2           1 RES     
    2431 CH2         21.2150     1.3655   -44.1557 CH2           1 RES     
    2432 CH2         20.1763     1.1462   -43.0401 CH2           1 RES     
    2433 CH2         20.8579     0.4907   -41.8247 CH2           1 RES     
    2434 CH2         19.8192     0.2714   -40.7091 CH2           1 RES     
    2435 CH2         20.5008    -0.3842   -39.4937 CH2           1 RES     
    2436 CH2         19.4621    -0.6034   -38.3781 CH2           1 RES     
    2437 CH2         20.1437    -1.2590   -37.1627 CH2           1 RES     
    2438 CH2         19.1050    -1.4783   -36.0471 CH2           1 RES     
    2439 CH2         19.7866    -2.1338   -34.8317 CH2           1 RES     
    2440 CH2         18.7479    -2.3531   -33.7161 CH2           1 RES     
    2441 CH2         19.4295    -3.0087   -32.5006 CH2           1 RES     
    2442 CH2         18.3907    -3.2279   -31.3850 CH2           1 RES     
    2443 CH2         19.0724    -3.8835   -30.1696 CH2           1 RES     
    2444 CH3         18.0808    -4.0928   -29.1047 CH3           1 RES     
    2445 CH3         28.0926    38.3406   -56.7654 CH3           1 RES     
    2446 CH3         29.0811    39.5098   -58.5512 CH3           1 RES     
    2447 CH3         26.9625    39.7596   -58.0694 CH3           1 RES     
    2448 NL          28.1655    39.5174   -57.5746 NL            1 RES     
    2449 CH2         28.3637    40.6110   -56.7359 CH2           1 RES     
    2450 CH2         29.7655    40.2986   -56.1801 CH2           1 RES     
    2451 OA          30.1090    42.0926   -52.7280 OA            1 RES     
    2452 P           29.6842    40.9583   -53.7735 P             1 RES     
    2453 OM          30.4222    39.6127   -53.3212 OM            1 RES     
    2454 OM          28.0863    40.8805   -53.7477 OM            1 RES     
    2455 OA          30.1760    41.3714   -55.2389 OA            1 RES     
    2456 CH2         29.6375    41.6766   -51.3827 CH2           1 RES     
    2457 CH1         30.0293    42.7468   -50.3470 CH1           1 RES     
    2458 OE          28.8163    43.2761   -49.7070 OE            1 RES     
    2459 C           29.2550    42.8450   -48.3389 C             1 RES     
    2460 O           30.3118    42.2641   -48.0969 O             1 RES     
    2461 CH2         28.1151    43.0849   -47.5529 CH2           1 RES     
    2462 CH2         28.5334    42.5111   -46.1864 CH2           1 RES     
    2463 CH2         27.3267    42.5299   -45.2298 CH2           1 RES     
    2464 CH2         27.7450    41.9561   -43.8632 CH2           1 RES     
    2465 CH2         26.5383    41.9750   -42.9066 CH2           1 RES     
    2466 CH2         26.9566    41.4012   -41.5401 CH2           1 RES     
    2467 CH2         25.7499    41.4201   -40.5835 CH2           1 RES     
    2468 CH2         26.1682    40.8463   -39.2169 CH2           1 RES     
    2469 CH2         24.9615    40.8651   -38.2603 CH2           1 RES     
    2470 CH2         25.3798    40.2914   -36.8938 CH2           1 RES     
    2471 CH2         24.1732    40.3102   -35.9372 CH2           1 RES     
    2472 CH2         24.5915    39.7364   -34.5707 CH2           1 RES     
    2473 CH2         23.3848    39.7553   -33.6140 CH2           1 RES     
    2474 CH2         23.8031    39.1815   -32.2475 CH2           1 RES     
    2475 CH2         22.5964    39.2004   -31.2909 CH2           1 RES     
    2476 CH2         23.0147    38.6266   -29.9244 CH2           1 RES     
    2477 CH3         21.8628    38.6446   -29.0112 CH3           1 RES     
    2478 CH2         30.9413    42.1166   -49.2780 CH2           1 RES     
    2479 OE          32.2008    41.6987   -49.8972 OE            1 RES     
    2480 C           32.8850    41.1820   -48.6664 C             1 RES     
    2481 O           34.0167    40.7004   -48.6486 O             1 RES     
    2482 CH2         31.8633    41.2126   -47.7022 CH2           1 RES     
    2483 CH2         32.5407    40.5527   -46.4867 CH2           1 RES     
    2484 CH2         31.5006    40.3401   -45.3711 CH2           1 RES     
    2485 CH2         32.1781    39.6802   -44.1557 CH2           1 RES     
    2486 CH2         31.1380    39.4675   -43.0401 CH2           1 RES     
    2487 CH2         31.8154    38.8076   -41.8247 CH2           1 RES     
    2488 CH2         30.7753    38.5950   -40.7091 CH2           1 RES     
    2489 CH2         31.4528    37.9351   -39.4937 CH2           1 RES     
    2490 CH2         30.4127    37.7224   -38.3781 CH2           1 RES     
    2491 CH2         31.0901    37.0625   -37.1627 CH2           1 RES     
    2492 CH2         30.0500    36.8498   -36.0471 CH2           1 RES     
    2493 CH2         30.7274    36.1900   -34.8317 CH2           1 RES     
    2494 CH2         29.6873    35.9773   -33.7161 CH2           1 RES     
    2495 CH2         30.3648    35.3174   -32.5006 CH2           1 RES     
    2496 CH2         29.3247    35.1047   -31.3850 CH2           1 RES     
    2497 CH2         30.0021    34.4449   -30.1696 CH2           1 RES     
    2498 CH3         29.0093    34.2419   -29.1047 CH3           1 RES     
    2499 CH3         39.0471    10.9545   -56.7654 CH3           1 RES     
    2500 CH3         40.3065    11.8251   -58.5512 CH3           1 RES     
    2501 CH3         38.3266    12.6193   -58.0694 CH3           1 RES     
    2502 NL          39.4246    12.0714   -57.5746 NL            1 RES     
    2503 CH2         39.9014    13.0754   -56.7359 CH2           1 RES     
    2504 CH2         41.1731    12.4079   -56.1801 CH2           1 RES     
    2505 OA          41.9729    14.0501   -52.7280 OA            1 RES     
    2506 P           41.2668    13.0660   -53.7735 P             1 RES     
    2507 OM          41.6280    11.5744   -53.3212 OM            1 RES     
    2508 OM          39.7040    13.4080   -53.7477 OM            1 RES     
    2509 OA          41.8493    13.3364   -55.2389 OA            1 RES     
    2510 CH2         41.4092    13.7715   -51.3827 CH2           1 RES     
    2511 CH1         42.0667    14.7024   -50.3470 CH1           1 RES     
    2512 OE          41.0340    15.5299   -49.7070 OE            1 RES     
    2513 C           41.3449    14.9993   -48.3389 C             1 RES     
    2514 O           42.2134    14.1627   -48.0969 O             1 RES     
    2515 CH2         40.3072    15.5284   -47.5529 CH2           1 RES     
    2516 CH2         40.5612    14.8653   -46.1864 CH2           1 RES     
    2517 CH2         39.4013    15.1985   -45.2298 CH2           1 RES     
    2518 CH2         39.6553    14.5354   -43.8632 CH2           1 RES     
    2519 CH2         38.4953    14.8686   -42.9066 CH2           1 RES     
    2520 CH2         38.7494    14.2055   -41.5401 CH2           1 RES     
    2521 CH2         37.5894    14.5387   -40.5835 CH2           1 RES     
    2522 CH2         37.8435    13.8756   -39.2169 CH2           1 RES     
    2523 CH2         36.6835    14.2088   -38.2603 CH2           1 RES     
    2524 CH2         36.9376    13.5457   -36.8938 CH2           1 RES     
    2525 CH2         35.7776    13.8789   -35.9372 CH2           1 RES     
    2526 CH2         36.0316    13.2158   -34.5707 CH2           1 RES     
    2527 CH2         34.8717    13.5490   -33.6140 CH2           1 RES     
    2528 CH2         35.1257    12.8859   -32.2475 CH2           1 RES     
    2529 CH2         33.9658    13.2191   -31.2909 CH2           1 RES     
    2530 CH2         34.2198    12.5560   -29.9244 CH2           1 RES     
    2531 CH3         33.1126    12.8741   -29.0112 CH3           1 RES     
    2532 CH2         42.7826    13.8560   -49.2780 CH2           1 RES     
    2533 OE          43.8894    13.1238   -49.8972 OE            1 RES     
    2534 C           44.4150    12.4465   -48.6664 C             1 RES     
    2535 O           45.3817    11.6862   -48.6486 O             1 RES     
    2536 CH2         43.4367    12.7427   -47.7022 CH2           1 RES     
    2537 CH2         43.9184    11.9288   -46.4867 CH2           1 RES     
    2538 CH2         42.8588    11.9950   -45.3711 CH2           1 RES     
    2539 CH2         43.3406    11.1812   -44.1557 CH2           1 RES     
    2540 CH2         42.2810    11.2474   -43.0401 CH2           1 RES     
    2541 CH2         42.7627    10.4336   -41.8247 CH2           1 RES     
    2542 CH2         41.7032    10.4998   -40.7091 CH2           1 RES     
    2543 CH2         42.1849     9.6859   -39.4937 CH2           1 RES     
    2544 CH2         41.1253     9.7521   -38.3781 CH2           1 RES     
    2545 CH2         41.6070     8.9383   -37.1627 CH2           1 RES     
    2546 CH2         40.5475     9.0045   -36.0471 CH2           1 RES     
    2547 CH2         41.0292     8.1907   -34.8317 CH2           1 RES     
    2548 CH2         39.9696     8.2568   -33.7161 CH2           1 RES     
    2549 CH2         40.4513     7.4430   -32.5006 CH2           1 RES     
    2550 CH2         39.3918     7.5092   -31.3850 CH2           1 RES     
    2551 CH2         39.8735     6.6954   -30.1696 CH2           1 RES     
    2552 CH3         38.8621     6.7586   -29.1047 CH3           1 RES     
    2553 CH3         33.5699     5.4772   -56.7654 CH3           1 RES     
    2554 CH3         34.8264     6.3519   -58.5512 CH3           1 RES     
    2555 CH3         32.8440     7.1397   -58.0694 CH3           1 RES     
    2556 NL          33.9438     6.5954   -57.5746 NL            1 RES     
    2557 CH2         34.4173     7.6009   -56.7359 CH2           1 RES     
    2558 CH2         35.6911     6.9376   -56.1801 CH2           1 RES     
    2559 OA          36.4856     8.5824   -52.7280 OA            1 RES     
    2560 P           35.7827     7.5960   -53.7735 P             1 RES     
    2561 OM          36.1487     6.1055   -53.3212 OM            1 RES     
    2562 OM          34.2188     7.9329   -53.7477 OM            1 RES     
    2563 OA          36.3643     7.8683   -55.2389 OA            1 RES     
    2564 CH2         35.9228     8.3020   -51.3827 CH2           1 RES     
    2565 CH1         36.5773     9.2350   -50.3470 CH1           1 RES     
    2566 OE          35.5419    10.0591   -49.7070 OE            1 RES     
    2567 C           35.8545     9.5295   -48.3389 C             1 RES     
    2568 O           36.7258     8.6957   -48.0969 O             1 RES     
    2569 CH2         34.8151    10.0552   -47.5529 CH2           1 RES     
    2570 CH2         35.0713     9.3930   -46.1864 CH2           1 RES     
    2571 CH2         33.9103     9.7224   -45.2298 CH2           1 RES     
    2572 CH2         34.1664     9.0601   -43.8632 CH2           1 RES     
    2573 CH2         33.0054     9.3896   -42.9066 CH2           1 RES     
    2574 CH2         33.2616     8.7273   -41.5401 CH2           1 RES     
    2575 CH2         32.1006     9.0567   -40.5835 CH2           1 RES     
    2576 CH2         32.3568     8.3945   -39.2169 CH2           1 RES     
    2577 CH2         31.1957     8.7239   -38.2603 CH2           1 RES     
    2578 CH2         31.4519     8.0616   -36.8938 CH2           1 RES     
    2579 CH2         30.2909     8.3910   -35.9372 CH2           1 RES     
    2580 CH2         30.5471     7.7288   -34.5707 CH2           1 RES     
    2581 CH2         29.3861     8.0582   -33.6140 CH2           1 RES     
    2582 CH2         29.6423     7.3960   -32.2475 CH2           1 RES     
    2583 CH2         28.4812     7.7254   -31.2909 CH2           1 RES     
    2584 CH2         28.7374     7.0631   -29.9244 CH2           1 RES     
    2585 CH3         27.6292     7.3776   -29.0112 CH3           1 RES     
    2586 CH2         37.2960     8.3909   -49.2780 CH2           1 RES     
    2587 OE          38.4051     7.6623   -49.8972 OE            1 RES     
    2588 C           38.9329     6.9867   -48.6664 C             1 RES     
    2589 O           39.9021     6.2295   -48.6486 O             1 RES     
    2590 CH2         37.9536     7.2797   -47.7022 CH2           1 RES     
    2591 CH2         38.4380     6.4674   -46.4867 CH2           1 RES     
    2592 CH2         37.3782     6.5302   -45.3711 CH2           1 RES     
    2593 CH2         37.8626     5.7179   -44.1557 CH2           1 RES     
    2594 CH2         36.8028     5.7807   -43.0401 CH2           1 RES     
    2595 CH2         37.2872     4.9684   -41.8247 CH2           1 RES     
    2596 CH2         36.2274     5.0312   -40.7091 CH2           1 RES     
    2597 CH2         36.7117     4.2189   -39.4937 CH2           1 RES     
    2598 CH2         35.6520     4.2816   -38.3781 CH2           1 RES     
    2599 CH2         36.1363     3.4694   -37.1627 CH2           1 RES     
    2600 CH2         35.0766     3.5321   -36.0471 CH2           1 RES     
    2601 CH2         35.5609     2.7199   -34.8317 CH2           1 RES     
    2602 CH2         34.5011     2.7826   -33.7161 CH2           1 RES     
    2603 CH2         34.9855     1.9704   -32.5006 CH2           1 RES     
    2604 CH2         33.9257     2.0331   -31.3850 CH2           1 RES     
    2605 CH2         34.4101     1.2209   -30.1696 CH2           1 RES     
    2606 CH3         33.3985     1.2808   -29.1047 CH3           1 RES     
    2607 CH3         39.0471     5.4772   -56.7654 CH3           1 RES     
    2608 CH3         40.3365     6.3027   -58.5512 CH3           1 RES     
    2609 CH3         38.3860     7.1665   -58.0694 CH3           1 RES     
    2610 NL          39.4639     6.5801   -57.5746 NL            1 RES     
    2611 CH2         39.9759     7.5666   -56.7359 CH2           1 RES     
    2612 CH2         41.2232     6.8545   -56.1801 CH2           1 RES     
    2613 OA          42.0806     8.4674   -52.7280 OA            1 RES     
    2614 P           41.3401     7.5089   -53.7735 P             1 RES     
    2615 OM          41.6483     6.0054   -53.3212 OM            1 RES     
    2616 OM          39.7904     7.9060   -53.7477 OM            1 RES     
    2617 OA          41.9319     7.7585   -55.2389 OA            1 RES     
    2618 CH2         41.5074     8.2089   -51.3827 CH2           1 RES     
    2619 CH1         42.1975     9.1159   -50.3470 CH1           1 RES     
    2620 OE          41.1947     9.9795   -49.7070 OE            1 RES     
    2621 C           41.4866     9.4382   -48.3389 C             1 RES     
    2622 O           42.3250     8.5714   -48.0969 O             1 RES     
    2623 CH2         40.4683    10.0037   -47.5529 CH2           1 RES     
    2624 CH2         40.6987     9.3320   -46.1864 CH2           1 RES     
    2625 CH2         39.5513     9.7061   -45.2298 CH2           1 RES     
    2626 CH2         39.7817     9.0344   -43.8632 CH2           1 RES     
    2627 CH2         38.6342     9.4084   -42.9066 CH2           1 RES     
    2628 CH2         38.8646     8.7368   -41.5401 CH2           1 RES     
    2629 CH2         37.7172     9.1108   -40.5835 CH2           1 RES     
    2630 CH2         37.9476     8.4392   -39.2169 CH2           1 RES     
    2631 CH2         36.8002     8.8132   -38.2603 CH2           1 RES     
    2632 CH2         37.0306     8.1415   -36.8938 CH2           1 RES     
    2633 CH2         35.8832     8.5156   -35.9372 CH2           1 RES     
    2634 CH2         36.1136     7.8439   -34.5707 CH2           1 RES     
    2635 CH2         34.9662     8.2180   -33.6140 CH2           1 RES     
    2636 CH2         35.1966     7.5463   -32.2475 CH2           1 RES     
    2637 CH2         34.0491     7.9203   -31.2909 CH2           1 RES     
    2638 CH2         34.2795     7.2487   -29.9244 CH2           1 RES     
    2639 CH3         33.1843     7.6057   -29.0112 CH3           1 RES     
    2640 CH2         42.8830     8.2447   -49.2780 CH2           1 RES     
    2641 OE          43.9632     7.4738   -49.8972 OE            1 RES     
    2642 C           44.4645     6.7783   -48.6664 C             1 RES     
    2643 O           45.4037     5.9843   -48.6486 O             1 RES     
    2644 CH2         43.4972     7.1089   -47.7022 CH2           1 RES     
    2645 CH2         43.9498     6.2786   -46.4867 CH2           1 RES     
    2646 CH2         42.8933     6.3822   -45.3711 CH2           1 RES     
    2647 CH2         43.3459     5.5519   -44.1557 CH2           1 RES     
    2648 CH2         42.2893     5.6555   -43.0401 CH2           1 RES     
    2649 CH2         42.7419     4.8251   -41.8247 CH2           1 RES     
    2650 CH2         41.6854     4.9288   -40.7091 CH2           1 RES     
    2651 CH2         42.1380     4.0984   -39.4937 CH2           1 RES     
    2652 CH2         41.0814     4.2021   -38.3781 CH2           1 RES     
    2653 CH2         41.5341     3.3717   -37.1627 CH2           1 RES     
    2654 CH2         40.4775     3.4754   -36.0471 CH2           1 RES     
    2655 CH2         40.9301     2.6450   -34.8317 CH2           1 RES     
    2656 CH2         39.8736     2.7487   -33.7161 CH2           1 RES     
    2657 CH2         40.3262     1.9183   -32.5006 CH2           1 RES     
    2658 CH2         39.2696     2.0219   -31.3850 CH2           1 RES     
    2659 CH2         39.7222     1.1916   -30.1696 CH2           1 RES     
    2660 CH3         38.7137     1.2905   -29.1047 CH3           1 RES     
    2661 CH3          0.7065    16.4317   -56.7654 CH3           1 RES     
    2662 CH3          1.5814    17.6881   -58.5512 CH3           1 RES     
    2663 CH3         -0.5513    17.7389   -58.0694 CH3           1 RES     
    2664 NL           0.6691    17.6102   -57.5746 NL            1 RES     
    2665 CH2          0.7641    18.7174   -56.7359 CH2           1 RES     
    2666 CH2          2.1890    18.5375   -56.1801 CH2           1 RES     
    2667 OA           2.3632    20.3558   -52.7280 OA            1 RES     
    2668 P            2.0464    19.1868   -53.7735 P             1 RES     
    2669 OM           2.9070    17.9160   -53.3212 OM            1 RES     
    2670 OM           0.4627    18.9599   -53.7477 OM            1 RES     
    2671 OA           2.4974    19.6440   -55.2389 OA            1 RES     
    2672 CH2          1.9328    19.8975   -51.3827 CH2           1 RES     
    2673 CH1          2.2228    20.9996   -50.3470 CH1           1 RES     
    2674 OE           0.9657    21.4132   -49.7070 OE            1 RES     
    2675 C            1.4427    21.0250   -48.3389 C             1 RES     
    2676 O            2.5492    20.5454   -48.0969 O             1 RES     
    2677 CH2          0.2854    21.1573   -47.5529 CH2           1 RES     
    2678 CH2          0.7555    20.6251   -46.1864 CH2           1 RES     
    2679 CH2         -0.4477    20.5311   -45.2298 CH2           1 RES     
    2680 CH2          0.0224    19.9989   -43.8632 CH2           1 RES     
    2681 CH2         -1.1808    19.9049   -42.9066 CH2           1 RES     
    2682 CH2         -0.7106    19.3727   -41.5401 CH2           1 RES     
    2683 CH2         -1.9138    19.2787   -40.5835 CH2           1 RES     
    2684 CH2         -1.4437    18.7465   -39.2169 CH2           1 RES     
    2685 CH2         -2.6469    18.6525   -38.2603 CH2           1 RES     
    2686 CH2         -2.1768    18.1203   -36.8938 CH2           1 RES     
    2687 CH2         -3.3799    18.0263   -35.9372 CH2           1 RES     
    2688 CH2         -2.9098    17.4941   -34.5707 CH2           1 RES     
    2689 CH2         -4.1130    17.4001   -33.6140 CH2           1 RES     
    2690 CH2         -3.6429    16.8679   -32.2475 CH2           1 RES     
    2691 CH2         -4.8461    16.7739   -31.2909 CH2           1 RES     
    2692 CH2         -4.3760    16.2417   -29.9244 CH2           1 RES     
    2693 CH3         -5.5244    16.1519   -29.0112 CH3           1 RES     
    2694 CH2          3.1897    20.4575   -49.2780 CH2           1 RES     
    2695 OE           4.4828    20.1591   -49.8972 OE            1 RES     
    2696 C            5.2123    19.7087   -48.6664 C             1 RES     
    2697 O            6.3840    19.3350   -48.6486 O             1 RES     
    2698 CH2          4.1922    19.6436   -47.7022 CH2           1 RES     
    2699 CH2          4.9283    19.0500   -46.4867 CH2           1 RES     
    2700 CH2          3.9127    18.7410   -45.3711 CH2           1 RES     
    2701 CH2          4.6488    18.1473   -44.1557 CH2           1 RES     
    2702 CH2          3.6332    17.8384   -43.0401 CH2           1 RES     
    2703 CH2          4.3693    17.2447   -41.8247 CH2           1 RES     
    2704 CH2          3.3537    16.9357   -40.7091 CH2           1 RES     
    2705 CH2          4.0898    16.3421   -39.4937 CH2           1 RES     
    2706 CH2          3.0742    16.0331   -38.3781 CH2           1 RES     
    2707 CH2          3.8103    15.4394   -37.1627 CH2           1 RES     
    2708 CH2          2.7947    15.1305   -36.0471 CH2           1 RES     
    2709 CH2          3.5308    14.5368   -34.8317 CH2           1 RES     
    2710 CH2          2.5152    14.2278   -33.7161 CH2           1 RES     
    2711 CH2          3.2513    13.6342   -32.5006 CH2           1 RES     
    2712 CH2          2.2357    13.3252   -31.3850 CH2           1 RES     
    2713 CH2          2.9718    12.7315   -30.1696 CH2           1 RES     
    2714 CH3          2.0023    12.4366   -29.1047 CH3           1 RES     
    2715 CH3         28.0926    10.9545   -56.7654 CH3           1 RES     
    2716 CH3         29.3169    11.8739   -58.5512 CH3           1 RES     
    2717 CH3         27.3073    12.5897   -58.0694 CH3           1 RES     
    2718 NL          28.4260    12.0854   -57.5746 NL            1 RES     
    2719 CH2         28.8630    13.1073   -56.7359 CH2           1 RES     
    2720 CH2         30.1599    12.4903   -56.1801 CH2           1 RES     
    2721 OA          30.8946    14.1627   -52.7280 OA            1 RES     
    2722 P           30.2277    13.1516   -53.7735 P             1 RES     
    2723 OM          30.6472    11.6753   -53.3212 OM            1 RES     
    2724 OM          28.6526    13.4319   -53.7477 OM            1 RES     
    2725 OA          30.7991    13.4447   -55.2389 OA            1 RES     
    2726 CH2         30.3423    13.8621   -51.3827 CH2           1 RES     
    2727 CH1         30.9627    14.8181   -50.3470 CH1           1 RES     
    2728 OE          29.8983    15.6044   -49.7070 OE            1 RES     
    2729 C           30.2298    15.0865   -48.3389 C             1 RES     
    2730 O           31.1305    14.2846   -48.0969 O             1 RES     
    2731 CH2         29.1721    15.5744   -47.5529 CH2           1 RES     
    2732 CH2         29.4520    14.9218   -46.1864 CH2           1 RES     
    2733 CH2         28.2798    15.2091   -45.2298 CH2           1 RES     
    2734 CH2         28.5597    14.5565   -43.8632 CH2           1 RES     
    2735 CH2         27.3876    14.8439   -42.9066 CH2           1 RES     
    2736 CH2         27.6674    14.1913   -41.5401 CH2           1 RES     
    2737 CH2         26.4953    14.4787   -40.5835 CH2           1 RES     
    2738 CH2         26.7752    13.8261   -39.2169 CH2           1 RES     
    2739 CH2         25.6031    14.1134   -38.2603 CH2           1 RES     
    2740 CH2         25.8829    13.4608   -36.8938 CH2           1 RES     
    2741 CH2         24.7108    13.7482   -35.9372 CH2           1 RES     
    2742 CH2         24.9907    13.0956   -34.5707 CH2           1 RES     
    2743 CH2         23.8186    13.3830   -33.6140 CH2           1 RES     
    2744 CH2         24.0984    12.7304   -32.2475 CH2           1 RES     
    2745 CH2         22.9263    13.0178   -31.2909 CH2           1 RES     
    2746 CH2         23.2062    12.3652   -29.9244 CH2           1 RES     
    2747 CH3         22.0873    12.6395   -29.0112 CH3           1 RES     
    2748 CH2         31.7113    14.0005   -49.2780 CH2           1 RES     
    2749 OE          32.8460    13.3123   -49.8972 OE            1 RES     
    2750 C           33.3978    12.6562   -48.6664 C             1 RES     
    2751 O           34.3936    11.9344   -48.6486 O             1 RES     
    2752 CH2         32.4086    12.9137   -47.7022 CH2           1 RES     
    2753 CH2         32.9219    12.1194   -46.4867 CH2           1 RES     
    2754 CH2         31.8606    12.1440   -45.3711 CH2           1 RES     
    2755 CH2         32.3739    11.3497   -44.1557 CH2           1 RES     
    2756 CH2         31.3125    11.3742   -43.0401 CH2           1 RES     
    2757 CH2         31.8259    10.5799   -41.8247 CH2           1 RES     
    2758 CH2         30.7645    10.6044   -40.7091 CH2           1 RES     
    2759 CH2         31.2778     9.8102   -39.4937 CH2           1 RES     
    2760 CH2         30.2165     9.8347   -38.3781 CH2           1 RES     
    2761 CH2         30.7298     9.0404   -37.1627 CH2           1 RES     
    2762 CH2         29.6685     9.0649   -36.0471 CH2           1 RES     
    2763 CH2         30.1818     8.2706   -34.8317 CH2           1 RES     
    2764 CH2         29.1204     8.2952   -33.7161 CH2           1 RES     
    2765 CH2         29.6337     7.5009   -32.5006 CH2           1 RES     
    2766 CH2         28.5724     7.5254   -31.3850 CH2           1 RES     
    2767 CH2         29.0857     6.7311   -30.1696 CH2           1 RES     
    2768 CH3         28.0726     6.7545   -29.1047 CH3           1 RES     
    2769 CH3         11.6610     5.4772   -56.7654 CH3           1 RES     
    2770 CH3         12.9072     6.3665   -58.5512 CH3           1 RES     
    2771 CH3         10.9157     7.1311   -58.0694 CH3           1 RES     
    2772 NL          12.0218     6.5997   -57.5746 NL            1 RES     
    2773 CH2         12.4835     7.6107   -56.7359 CH2           1 RES     
    2774 CH2         13.7650     6.9623   -56.1801 CH2           1 RES     
    2775 OA          14.5403     8.6162   -52.7280 OA            1 RES     
    2776 P           13.8489     7.6217   -53.7735 P             1 RES     
    2777 OM          14.2323     6.1356   -53.3212 OM            1 RES     
    2778 OM          12.2811     7.9403   -53.7477 OM            1 RES     
    2779 OA          14.4273     7.9008   -55.2389 OA            1 RES     
    2780 CH2         13.9808     8.3292   -51.3827 CH2           1 RES     
    2781 CH1         14.6244     9.2698   -50.3470 CH1           1 RES     
    2782 OE          13.5794    10.0818   -49.7070 OE            1 RES     
    2783 C           13.8982     9.5559   -48.3389 C             1 RES     
    2784 O           14.7791     8.7323   -48.0969 O             1 RES     
    2785 CH2         12.8526    10.0695   -47.5529 CH2           1 RES     
    2786 CH2         13.1165     9.4102   -46.1864 CH2           1 RES     
    2787 CH2         11.9518     9.7261   -45.2298 CH2           1 RES     
    2788 CH2         12.2157     9.0669   -43.8632 CH2           1 RES     
    2789 CH2         11.0509     9.3827   -42.9066 CH2           1 RES     
    2790 CH2         11.3148     8.7235   -41.5401 CH2           1 RES     
    2791 CH2         10.1500     9.0393   -40.5835 CH2           1 RES     
    2792 CH2         10.4139     8.3801   -39.2169 CH2           1 RES     
    2793 CH2          9.2491     8.6959   -38.2603 CH2           1 RES     
    2794 CH2          9.5130     8.0367   -36.8938 CH2           1 RES     
    2795 CH2          8.3482     8.3526   -35.9372 CH2           1 RES     
    2796 CH2          8.6121     7.6933   -34.5707 CH2           1 RES     
    2797 CH2          7.4473     8.0092   -33.6140 CH2           1 RES     
    2798 CH2          7.7112     7.3500   -32.2475 CH2           1 RES     
    2799 CH2          6.5464     7.6658   -31.2909 CH2           1 RES     
    2800 CH2          6.8103     7.0066   -29.9244 CH2           1 RES     
    2801 CH3          5.6985     7.3081   -29.0112 CH3           1 RES     
    2802 CH2         15.3528     8.4342   -49.2780 CH2           1 RES     
    2803 OE          16.4704     7.7186   -49.8972 OE            1 RES     
    2804 C           17.0060     7.0492   -48.6664 C             1 RES     
    2805 O           17.9840     6.3034   -48.6486 O             1 RES     
    2806 CH2         16.0234     7.3307   -47.7022 CH2           1 RES     
    2807 CH2         16.5172     6.5242   -46.4867 CH2           1 RES     
    2808 CH2         15.4568     6.5746   -45.3711 CH2           1 RES     
    2809 CH2         15.9506     5.7680   -44.1557 CH2           1 RES     
    2810 CH2         14.8901     5.8184   -43.0401 CH2           1 RES     
    2811 CH2         15.3839     5.0118   -41.8247 CH2           1 RES     
    2812 CH2         14.3235     5.0622   -40.7091 CH2           1 RES     
    2813 CH2         14.8173     4.2557   -39.4937 CH2           1 RES     
    2814 CH2         13.7569     4.3060   -38.3781 CH2           1 RES     
    2815 CH2         14.2507     3.4995   -37.1627 CH2           1 RES     
    2816 CH2         13.1903     3.5499   -36.0471 CH2           1 RES     
    2817 CH2         13.6841     2.7433   -34.8317 CH2           1 RES     
    2818 CH2         12.6236     2.7937   -33.7161 CH2           1 RES     
    2819 CH2         13.1174     1.9871   -32.5006 CH2           1 RES     
    2820 CH2         12.0570     2.0375   -31.3850 CH2           1 RES     
    2821 CH2         12.5508     1.2310   -30.1696 CH2           1 RES     
    2822 CH3         11.5386     1.2790   -29.1047 CH3           1 RES     
    2823 CH3         22.6154    21.9089   -56.7654 CH3           1 RES     
    2824 CH3         23.8045    22.8733   -58.5512 CH3           1 RES     
    2825 CH3         21.7697    23.5138   -58.0694 CH3           1 RES     
    2826 NL          22.9065    23.0515   -57.5746 NL            1 RES     
    2827 CH2         23.3050    24.0889   -56.7359 CH2           1 RES     
    2828 CH2         24.6240    23.5207   -56.1801 CH2           1 RES     
    2829 OA          25.2960    25.2192   -52.7280 OA            1 RES     
    2830 P           24.6671    24.1840   -53.7735 P             1 RES     
    2831 OM          25.1413    22.7244   -53.3212 OM            1 RES     
    2832 OM          23.0828    24.4055   -53.7477 OM            1 RES     
    2833 OA          25.2273    24.4982   -55.2389 OA            1 RES     
    2834 CH2         24.7552    24.8983   -51.3827 CH2           1 RES     
    2835 CH1         25.3396    25.8768   -50.3470 CH1           1 RES     
    2836 OE          24.2466    26.6229   -49.7070 OE            1 RES     
    2837 C           24.5972    26.1176   -48.3389 C             1 RES     
    2838 O           25.5272    25.3498   -48.0969 O             1 RES     
    2839 CH2         23.5221    26.5658   -47.5529 CH2           1 RES     
    2840 CH2         23.8260    25.9241   -46.1864 CH2           1 RES     
    2841 CH2         22.6440    26.1676   -45.2298 CH2           1 RES     
    2842 CH2         22.9480    25.5259   -43.8632 CH2           1 RES     
    2843 CH2         21.7660    25.7694   -42.9066 CH2           1 RES     
    2844 CH2         22.0700    25.1277   -41.5401 CH2           1 RES     
    2845 CH2         20.8880    25.3712   -40.5835 CH2           1 RES     
    2846 CH2         21.1919    24.7295   -39.2169 CH2           1 RES     
    2847 CH2         20.0099    24.9730   -38.2603 CH2           1 RES     
    2848 CH2         20.3139    24.3313   -36.8938 CH2           1 RES     
    2849 CH2         19.1319    24.5748   -35.9372 CH2           1 RES     
    2850 CH2         19.4359    23.9331   -34.5707 CH2           1 RES     
    2851 CH2         18.2539    24.1766   -33.6140 CH2           1 RES     
    2852 CH2         18.5578    23.5349   -32.2475 CH2           1 RES     
    2853 CH2         17.3758    23.7784   -31.2909 CH2           1 RES     
    2854 CH2         17.6798    23.1367   -29.9244 CH2           1 RES     
    2855 CH3         16.5515    23.3691   -29.0112 CH3           1 RES     
    2856 CH2         26.1182    25.0876   -49.2780 CH2           1 RES     
    2857 OE          27.2777    24.4422   -49.8972 OE            1 RES     
    2858 C           27.8535    23.8070   -48.6664 C             1 RES     
    2859 O           28.8756    23.1229   -48.6486 O             1 RES     
    2860 CH2         26.8554    24.0275   -47.7022 CH2           1 RES     
    2861 CH2         27.3980    23.2529   -46.4867 CH2           1 RES     
    2862 CH2         26.3364    23.2379   -45.3711 CH2           1 RES     
    2863 CH2         26.8790    22.4633   -44.1557 CH2           1 RES     
    2864 CH2         25.8175    22.4483   -43.0401 CH2           1 RES     
    2865 CH2         26.3600    21.6737   -41.8247 CH2           1 RES     
    2866 CH2         25.2985    21.6586   -40.7091 CH2           1 RES     
    2867 CH2         25.8410    20.8840   -39.4937 CH2           1 RES     
    2868 CH2         24.7795    20.8690   -38.3781 CH2           1 RES     
    2869 CH2         25.3220    20.0944   -37.1627 CH2           1 RES     
    2870 CH2         24.2605    20.0794   -36.0471 CH2           1 RES     
    2871 CH2         24.8030    19.3048   -34.8317 CH2           1 RES     
    2872 CH2         23.7415    19.2897   -33.7161 CH2           1 RES     
    2873 CH2         24.2840    18.5151   -32.5006 CH2           1 RES     
    2874 CH2         23.2225    18.5001   -31.3850 CH2           1 RES     
    2875 CH2         23.7651    17.7255   -30.1696 CH2           1 RES     
    2876 CH3         22.7518    17.7111   -29.1047 CH3           1 RES     
    2877 CH3         39.0471    16.4317   -56.7654 CH3           1 RES     
    2878 CH3         40.1515    17.4920   -58.5512 CH3           1 RES     
    2879 CH3         38.0703    17.9603   -58.0694 CH3           1 RES     
    2880 NL          39.2417    17.5946   -57.5746 NL            1 RES     
    2881 CH2         39.5523    18.6617   -56.7359 CH2           1 RES     
    2882 CH2         40.9141    18.2056   -56.1801 CH2           1 RES     
    2883 OA          41.4418    19.9543   -52.7280 OA            1 RES     
    2884 P           40.9017    18.8702   -53.7735 P             1 RES     
    2885 OM          41.4961    17.4552   -53.3212 OM            1 RES     
    2886 OM          39.3043    18.9586   -53.7477 OM            1 RES     
    2887 OA          41.4336    19.2300   -55.2389 OA            1 RES     
    2888 CH2         40.9298    19.5894   -51.3827 CH2           1 RES     
    2889 CH1         41.4305    20.6132   -50.3470 CH1           1 RES     
    2890 OE          40.2790    21.2654   -49.7070 OE            1 RES     
    2891 C           40.6705    20.7912   -48.3389 C             1 RES     
    2892 O           41.6614    20.1037   -48.0969 O             1 RES     
    2893 CH2         39.5617    21.1480   -47.5529 CH2           1 RES     
    2894 CH2         39.9182    20.5339   -46.1864 CH2           1 RES     
    2895 CH2         38.7200    20.6779   -45.2298 CH2           1 RES     
    2896 CH2         39.0765    20.0638   -43.8632 CH2           1 RES     
    2897 CH2         37.8783    20.2078   -42.9066 CH2           1 RES     
    2898 CH2         38.2348    19.5937   -41.5401 CH2           1 RES     
    2899 CH2         37.0366    19.7376   -40.5835 CH2           1 RES     
    2900 CH2         37.3931    19.1235   -39.2169 CH2           1 RES     
    2901 CH2         36.1948    19.2675   -38.2603 CH2           1 RES     
    2902 CH2         36.5513    18.6534   -36.8938 CH2           1 RES     
    2903 CH2         35.3531    18.7974   -35.9372 CH2           1 RES     
    2904 CH2         35.7096    18.1833   -34.5707 CH2           1 RES     
    2905 CH2         34.5114    18.3272   -33.6140 CH2           1 RES     
    2906 CH2         34.8679    17.7131   -32.2475 CH2           1 RES     
    2907 CH2         33.6697    17.8571   -31.2909 CH2           1 RES     
    2908 CH2         34.0262    17.2430   -29.9244 CH2           1 RES     
    2909 CH3         32.8824    17.3804   -29.0112 CH3           1 RES     
    2910 CH2         42.2722    19.8917   -49.2780 CH2           1 RES     
    2911 OE          43.4815    19.3454   -49.8972 OE            1 RES     
    2912 C           44.1084    18.7606   -48.6664 C             1 RES     
    2913 O           45.1840    18.1641   -48.6486 O             1 RES     
    2914 CH2         43.0954    18.8970   -47.7022 CH2           1 RES     
    2915 CH2         43.7007    18.1704   -46.4867 CH2           1 RES     
    2916 CH2         42.6441    18.0668   -45.3711 CH2           1 RES     
    2917 CH2         43.2495    17.3402   -44.1557 CH2           1 RES     
    2918 CH2         42.1929    17.2365   -43.0401 CH2           1 RES     
    2919 CH2         42.7982    16.5099   -41.8247 CH2           1 RES     
    2920 CH2         41.7417    16.4063   -40.7091 CH2           1 RES     
    2921 CH2         42.3470    15.6797   -39.4937 CH2           1 RES     
    2922 CH2         41.2904    15.5761   -38.3781 CH2           1 RES     
    2923 CH2         41.8958    14.8495   -37.1627 CH2           1 RES     
    2924 CH2         40.8392    14.7459   -36.0471 CH2           1 RES     
    2925 CH2         41.4445    14.0193   -34.8317 CH2           1 RES     
    2926 CH2         40.3880    13.9157   -33.7161 CH2           1 RES     
    2927 CH2         40.9933    13.1891   -32.5006 CH2           1 RES     
    2928 CH2         39.9367    13.0855   -31.3850 CH2           1 RES     
    2929 CH2         40.5420    12.3589   -30.1696 CH2           1 RES     
    2930 CH3         39.5335    12.2600   -29.1047 CH3           1 RES     
    2931 CH3         17.1382    27.3861   -56.7654 CH3           1 RES     
    2932 CH3         18.2252    28.4643   -58.5512 CH3           1 RES     
    2933 CH3         16.1366    28.8986   -58.0694 CH3           1 RES     
    2934 NL          17.3138    28.5521   -57.5746 NL            1 RES     
    2935 CH2         17.6068    29.6241   -56.7359 CH2           1 RES     
    2936 CH2         18.9759    29.1903   -56.1801 CH2           1 RES     
    2937 OA          19.4750    30.9474   -52.7280 OA            1 RES     
    2938 P           18.9526    29.8546   -53.7735 P             1 RES     
    2939 OM          19.5701    28.4496   -53.3212 OM            1 RES     
    2940 OM          17.3541    29.9169   -53.7477 OM            1 RES     
    2941 OA          19.4787    30.2231   -55.2389 OA            1 RES     
    2942 CH2         18.9690    30.5742   -51.3827 CH2           1 RES     
    2943 CH1         19.4529    31.6060   -50.3470 CH1           1 RES     
    2944 OE          18.2909    32.2394   -49.7070 OE            1 RES     
    2945 C           18.6901    31.7716   -48.3389 C             1 RES     
    2946 O           19.6921    31.1005   -48.0969 O             1 RES     
    2947 CH2         17.5756    32.1103   -47.5529 CH2           1 RES     
    2948 CH2         17.9421    31.5021   -46.1864 CH2           1 RES     
    2949 CH2         16.7417    31.6264   -45.2298 CH2           1 RES     
    2950 CH2         17.1082    31.0182   -43.8632 CH2           1 RES     
    2951 CH2         15.9078    31.1426   -42.9066 CH2           1 RES     
    2952 CH2         16.2743    30.5344   -41.5401 CH2           1 RES     
    2953 CH2         15.0739    30.6588   -40.5835 CH2           1 RES     
    2954 CH2         15.4404    30.0506   -39.2169 CH2           1 RES     
    2955 CH2         14.2399    30.1749   -38.2603 CH2           1 RES     
    2956 CH2         14.6064    29.5667   -36.8938 CH2           1 RES     
    2957 CH2         13.4060    29.6911   -35.9372 CH2           1 RES     
    2958 CH2         13.7725    29.0829   -34.5707 CH2           1 RES     
    2959 CH2         12.5721    29.2073   -33.6140 CH2           1 RES     
    2960 CH2         12.9386    28.5991   -32.2475 CH2           1 RES     
    2961 CH2         11.7382    28.7234   -31.2909 CH2           1 RES     
    2962 CH2         12.1047    28.1152   -29.9244 CH2           1 RES     
    2963 CH3         10.9589    28.2340   -29.0112 CH3           1 RES     
    2964 CH2         20.3063    30.8985   -49.2780 CH2           1 RES     
    2965 OE          21.5244    30.3720   -49.8972 OE            1 RES     
    2966 C           22.1608    29.7975   -48.6664 C             1 RES     
    2967 O           23.2459    29.2187   -48.6486 O             1 RES     
    2968 CH2         21.1456    29.9173   -47.7022 CH2           1 RES     
    2969 CH2         21.7627    29.2007   -46.4867 CH2           1 RES     
    2970 CH2         20.7080    29.0798   -45.3711 CH2           1 RES     
    2971 CH2         21.3251    28.3632   -44.1557 CH2           1 RES     
    2972 CH2         20.2704    28.2423   -43.0401 CH2           1 RES     
    2973 CH2         20.8875    27.5257   -41.8247 CH2           1 RES     
    2974 CH2         19.8328    27.4048   -40.7091 CH2           1 RES     
    2975 CH2         20.4499    26.6882   -39.4937 CH2           1 RES     
    2976 CH2         19.3952    26.5674   -38.3781 CH2           1 RES     
    2977 CH2         20.0123    25.8508   -37.1627 CH2           1 RES     
    2978 CH2         18.9576    25.7299   -36.0471 CH2           1 RES     
    2979 CH2         19.5747    25.0133   -34.8317 CH2           1 RES     
    2980 CH2         18.5200    24.8924   -33.7161 CH2           1 RES     
    2981 CH2         19.1371    24.1758   -32.5006 CH2           1 RES     
    2982 CH2         18.0824    24.0549   -31.3850 CH2           1 RES     
    2983 CH2         18.6995    23.3383   -30.1696 CH2           1 RES     
    2984 CH3         17.6928    23.2229   -29.1047 CH3           1 RES     
    2985 CH3         28.0926    21.9089   -56.7654 CH3           1 RES     
    2986 CH3         29.2462    22.9156   -58.5512 CH3           1 RES     
    2987 CH3         27.1895    23.4822   -58.0694 CH3           1 RES     
    2988 NL          28.3422    23.0613   -57.5746 NL            1 RES     
    2989 CH2         28.7030    24.1124   -56.7359 CH2           1 RES     
    2990 CH2         30.0417    23.5922   -56.1801 CH2           1 RES     
    2991 OA          30.6518    25.3139   -52.7280 OA            1 RES     
    2992 P           30.0608    24.2567   -53.7735 P             1 RES     
    2993 OM          30.5874    22.8151   -53.3212 OM            1 RES     
    2994 OM          28.4695    24.4207   -53.7477 OM            1 RES     
    2995 OA          30.6093    24.5909   -55.2389 OA            1 RES     
    2996 CH2         30.1230    24.9737   -51.3827 CH2           1 RES     
    2997 CH1         30.6717    25.9726   -50.3470 CH1           1 RES     
    2998 OE          29.5525    26.6788   -49.7070 OE            1 RES     
    2999 C           29.9211    26.1865   -48.3389 C             1 RES     
    3000 O           30.8782    25.4528   -48.0969 O             1 RES     
    3001 CH2         28.8304    26.5955   -47.5529 CH2           1 RES     
    3002 CH2         29.1574    25.9652   -46.1864 CH2           1 RES     
    3003 CH2         27.9674    26.1659   -45.2298 CH2           1 RES     
    3004 CH2         28.2943    25.5355   -43.8632 CH2           1 RES     
    3005 CH2         27.1043    25.7362   -42.9066 CH2           1 RES     
    3006 CH2         27.4313    25.1059   -41.5401 CH2           1 RES     
    3007 CH2         26.2412    25.3065   -40.5835 CH2           1 RES     
    3008 CH2         26.5682    24.6762   -39.2169 CH2           1 RES     
    3009 CH2         25.3781    24.8769   -38.2603 CH2           1 RES     
    3010 CH2         25.7051    24.2465   -36.8938 CH2           1 RES     
    3011 CH2         24.5151    24.4472   -35.9372 CH2           1 RES     
    3012 CH2         24.8420    23.8169   -34.5707 CH2           1 RES     
    3013 CH2         23.6520    24.0175   -33.6140 CH2           1 RES     
    3014 CH2         23.9790    23.3872   -32.2475 CH2           1 RES     
    3015 CH2         22.7889    23.5879   -31.2909 CH2           1 RES     
    3016 CH2         23.1159    22.9575   -29.9244 CH2           1 RES     
    3017 CH3         21.9799    23.1491   -29.0112 CH3           1 RES     
    3018 CH2         31.4783    25.2121   -49.2780 CH2           1 RES     
    3019 OE          32.6603    24.6090   -49.8972 OE            1 RES     
    3020 C           33.2588    23.9950   -48.6664 C             1 RES     
    3021 O           34.3048    23.3483   -48.6486 O             1 RES     
    3022 CH2         32.2533    24.1793   -47.7022 CH2           1 RES     
    3023 CH2         32.8235    23.4248   -46.4867 CH2           1 RES     
    3024 CH2         31.7632    23.3715   -45.3711 CH2           1 RES     
    3025 CH2         32.3334    22.6170   -44.1557 CH2           1 RES     
    3026 CH2         31.2731    22.5636   -43.0401 CH2           1 RES     
    3027 CH2         31.8433    21.8091   -41.8247 CH2           1 RES     
    3028 CH2         30.7830    21.7557   -40.7091 CH2           1 RES     
    3029 CH2         31.3532    21.0012   -39.4937 CH2           1 RES     
    3030 CH2         30.2929    20.9479   -38.3781 CH2           1 RES     
    3031 CH2         30.8630    20.1934   -37.1627 CH2           1 RES     
    3032 CH2         29.8028    20.1400   -36.0471 CH2           1 RES     
    3033 CH2         30.3729    19.3855   -34.8317 CH2           1 RES     
    3034 CH2         29.3126    19.3321   -33.7161 CH2           1 RES     
    3035 CH2         29.8828    18.5776   -32.5006 CH2           1 RES     
    3036 CH2         28.8225    18.5243   -31.3850 CH2           1 RES     
    3037 CH2         29.3927    17.7698   -30.1696 CH2           1 RES     
    3038 CH3         28.3806    17.7188   -29.1047 CH3           1 RES     
    3039 CH3          6.1837     0.0000   -56.7654 CH3           1 RES     
    3040 CH3          7.0692     1.2490   -58.5512 CH3           1 RES     
    3041 CH3          4.9370     1.3178   -58.0694 CH3           1 RES     
    3042 NL           6.1563     1.1787   -57.5746 NL            1 RES     
    3043 CH2          6.2607     2.2852   -56.7359 CH2           1 RES     
    3044 CH2          7.6840     2.0932   -56.1801 CH2           1 RES     
    3045 OA           7.8736     3.9100   -52.7280 OA            1 RES     
    3046 P            7.5469     2.7436   -53.7735 P             1 RES     
    3047 OM           8.3967     1.4656   -53.3212 OM            1 RES     
    3048 OM           5.9614     2.5302   -53.7477 OM            1 RES     
    3049 OA           8.0017     3.1971   -55.2389 OA            1 RES     
    3050 CH2          7.4393     3.4553   -51.3827 CH2           1 RES     
    3051 CH1          7.7386     4.5550   -50.3470 CH1           1 RES     
    3052 OE           6.4850     4.9791   -49.7070 OE            1 RES     
    3053 C            6.9587     4.5870   -48.3389 C             1 RES     
    3054 O            8.0611     4.0980   -48.0969 O             1 RES     
    3055 CH2          5.8026     4.7290   -47.5529 CH2           1 RES     
    3056 CH2          6.2682     4.1929   -46.1864 CH2           1 RES     
    3057 CH2          5.0643     4.1090   -45.2298 CH2           1 RES     
    3058 CH2          5.5299     3.5729   -43.8632 CH2           1 RES     
    3059 CH2          4.3259     3.4891   -42.9066 CH2           1 RES     
    3060 CH2          4.7915     2.9529   -41.5401 CH2           1 RES     
    3061 CH2          3.5876     2.8691   -40.5835 CH2           1 RES     
    3062 CH2          4.0532     2.3329   -39.2169 CH2           1 RES     
    3063 CH2          2.8493     2.2491   -38.2603 CH2           1 RES     
    3064 CH2          3.3149     1.7130   -36.8938 CH2           1 RES     
    3065 CH2          2.1109     1.6291   -35.9372 CH2           1 RES     
    3066 CH2          2.5765     1.0930   -34.5707 CH2           1 RES     
    3067 CH2          1.3726     1.0092   -33.6140 CH2           1 RES     
    3068 CH2          1.8382     0.4730   -32.2475 CH2           1 RES     
    3069 CH2          0.6343     0.3892   -31.2909 CH2           1 RES     
    3070 CH2          1.0998    -0.1469   -29.9244 CH2           1 RES     
    3071 CH3         -0.0494    -0.2270   -29.0112 CH3           1 RES     
    3072 CH2          8.7009     4.0046   -49.2780 CH2           1 RES     
    3073 OE           9.9914     3.6954   -49.8972 OE            1 RES     
    3074 C           10.7171     3.2388   -48.6664 C             1 RES     
    3075 O           11.8856     2.8552   -48.6486 O             1 RES     
    3076 CH2          9.6964     3.1823   -47.7022 CH2           1 RES     
    3077 CH2         10.4276     2.5825   -46.4867 CH2           1 RES     
    3078 CH2          9.4093     2.2821   -45.3711 CH2           1 RES     
    3079 CH2         10.1404     1.6822   -44.1557 CH2           1 RES     
    3080 CH2          9.1222     1.3819   -43.0401 CH2           1 RES     
    3081 CH2          9.8533     0.7820   -41.8247 CH2           1 RES     
    3082 CH2          8.8351     0.4816   -40.7091 CH2           1 RES     
    3083 CH2          9.5662    -0.1182   -39.4937 CH2           1 RES     
    3084 CH2          8.5479    -0.4186   -38.3781 CH2           1 RES     
    3085 CH2          9.2790    -1.0185   -37.1627 CH2           1 RES     
    3086 CH2          8.2608    -1.3188   -36.0471 CH2           1 RES     
    3087 CH2          8.9919    -1.9187   -34.8317 CH2           1 RES     
    3088 CH2          7.9737    -2.2191   -33.7161 CH2           1 RES     
    3089 CH2          8.7048    -2.8189   -32.5006 CH2           1 RES     
    3090 CH2          7.6865    -3.1193   -31.3850 CH2           1 RES     
    3091 CH2          8.4176    -3.7192   -30.1696 CH2           1 RES     
    3092 CH3          7.4457    -4.0059   -29.1047 CH3           1 RES     
    3093 CH3          0.7065    27.3861   -56.7654 CH3           1 RES     
    3094 CH3          1.9630    28.2609   -58.5512 CH3           1 RES     
    3095 CH3         -0.0195    29.0486   -58.0694 CH3           1 RES     
    3096 NL           1.0804    28.5044   -57.5746 NL            1 RES     
    3097 CH2          1.5538    29.5098   -56.7359 CH2           1 RES     
    3098 CH2          2.8277    28.8466   -56.1801 CH2           1 RES     
    3099 OA           3.6221    30.4914   -52.7280 OA            1 RES     
    3100 P            2.9192    29.5050   -53.7735 P             1 RES     
    3101 OM           3.2853    28.0145   -53.3212 OM            1 RES     
    3102 OM           1.3553    29.8418   -53.7477 OM            1 RES     
    3103 OA           3.5009    29.7773   -55.2389 OA            1 RES     
    3104 CH2          3.0593    30.2110   -51.3827 CH2           1 RES     
    3105 CH1          3.7138    31.1440   -50.3470 CH1           1 RES     
    3106 OE           2.6783    31.9681   -49.7070 OE            1 RES     
    3107 C            2.9910    31.4385   -48.3389 C             1 RES     
    3108 O            3.8623    30.6048   -48.0969 O             1 RES     
    3109 CH2          1.9515    31.9642   -47.5529 CH2           1 RES     
    3110 CH2          2.2077    31.3019   -46.1864 CH2           1 RES     
    3111 CH2          1.0467    31.6313   -45.2298 CH2           1 RES     
    3112 CH2          1.3029    30.9691   -43.8632 CH2           1 RES     
    3113 CH2          0.1419    31.2984   -42.9066 CH2           1 RES     
    3114 CH2          0.3981    30.6362   -41.5401 CH2           1 RES     
    3115 CH2         -0.7629    30.9656   -40.5835 CH2           1 RES     
    3116 CH2         -0.5067    30.3033   -39.2169 CH2           1 RES     
    3117 CH2         -1.6678    30.6327   -38.2603 CH2           1 RES     
    3118 CH2         -1.4115    29.9704   -36.8938 CH2           1 RES     
    3119 CH2         -2.5726    30.2998   -35.9372 CH2           1 RES     
    3120 CH2         -2.3164    29.6375   -34.5707 CH2           1 RES     
    3121 CH2         -3.4774    29.9669   -33.6140 CH2           1 RES     
    3122 CH2         -3.2212    29.3047   -32.2475 CH2           1 RES     
    3123 CH2         -4.3822    29.6340   -31.2909 CH2           1 RES     
    3124 CH2         -4.1260    28.9718   -29.9244 CH2           1 RES     
    3125 CH3         -5.2343    29.2862   -29.0112 CH3           1 RES     
    3126 CH2          4.4325    30.2999   -49.2780 CH2           1 RES     
    3127 OE           5.5417    29.5714   -49.8972 OE            1 RES     
    3128 C            6.0695    28.8958   -48.6664 C             1 RES     
    3129 O            7.0387    28.1387   -48.6486 O             1 RES     
    3130 CH2          5.0902    29.1888   -47.7022 CH2           1 RES     
    3131 CH2          5.5746    28.3766   -46.4867 CH2           1 RES     
    3132 CH2          4.5148    28.4393   -45.3711 CH2           1 RES     
    3133 CH2          4.9992    27.6270   -44.1557 CH2           1 RES     
    3134 CH2          3.9394    27.6897   -43.0401 CH2           1 RES     
    3135 CH2          4.4238    26.8775   -41.8247 CH2           1 RES     
    3136 CH2          3.3641    26.9402   -40.7091 CH2           1 RES     
    3137 CH2          3.8484    26.1279   -39.4937 CH2           1 RES     
    3138 CH2          2.7887    26.1906   -38.3781 CH2           1 RES     
    3139 CH2          3.2731    25.3784   -37.1627 CH2           1 RES     
    3140 CH2          2.2133    25.4411   -36.0471 CH2           1 RES     
    3141 CH2          2.6977    24.6289   -34.8317 CH2           1 RES     
    3142 CH2          1.6379    24.6916   -33.7161 CH2           1 RES     
    3143 CH2          2.1223    23.8793   -32.5006 CH2           1 RES     
    3144 CH2          1.0625    23.9420   -31.3850 CH2           1 RES     
    3145 CH2          1.5469    23.1298   -30.1696 CH2           1 RES     
    3146 CH3          0.5353    23.1896   -29.1047 CH3           1 RES     
    3147 CH3         28.0926    27.3861   -56.7654 CH3           1 RES     
    3148 CH3         29.4477    28.0987   -58.5512 CH3           1 RES     
    3149 CH3         27.5779    29.1256   -58.0694 CH3           1 RES     
    3150 NL          28.6020    28.4495   -57.5746 NL            1 RES     
    3151 CH2         29.1962    29.3887   -56.7359 CH2           1 RES     
    3152 CH2         30.3782    28.5730   -56.1801 CH2           1 RES     
    3153 OA          31.3700    30.1069   -52.7280 OA            1 RES     
    3154 P           30.5505    29.2150   -53.7735 P             1 RES     
    3155 OM          30.7294    27.6907   -53.3212 OM            1 RES     
    3156 OM          29.0402    29.7427   -53.7477 OM            1 RES     
    3157 OA          31.1614    29.4133   -55.2389 OA            1 RES     
    3158 CH2         30.7769    29.8982   -51.3827 CH2           1 RES     
    3159 CH1         31.5417    30.7431   -50.3470 CH1           1 RES     
    3160 OE          30.6162    31.6890   -49.7070 OE            1 RES     
    3161 C           30.8609    31.1248   -48.3389 C             1 RES     
    3162 O           31.6224    30.1896   -48.0969 O             1 RES     
    3163 CH2         29.8944    31.7750   -47.5529 CH2           1 RES     
    3164 CH2         30.0668    31.0861   -46.1864 CH2           1 RES     
    3165 CH2         28.9554    31.5566   -45.2298 CH2           1 RES     
    3166 CH2         29.1277    30.8678   -43.8632 CH2           1 RES     
    3167 CH2         28.0163    31.3382   -42.9066 CH2           1 RES     
    3168 CH2         28.1887    30.6494   -41.5401 CH2           1 RES     
    3169 CH2         27.0773    31.1198   -40.5835 CH2           1 RES     
    3170 CH2         27.2496    30.4310   -39.2169 CH2           1 RES     
    3171 CH2         26.1382    30.9015   -38.2603 CH2           1 RES     
    3172 CH2         26.3106    30.2126   -36.8938 CH2           1 RES     
    3173 CH2         25.1992    30.6831   -35.9372 CH2           1 RES     
    3174 CH2         25.3715    29.9942   -34.5707 CH2           1 RES     
    3175 CH2         24.2602    30.4647   -33.6140 CH2           1 RES     
    3176 CH2         24.4325    29.7758   -32.2475 CH2           1 RES     
    3177 CH2         23.3211    30.2463   -31.2909 CH2           1 RES     
    3178 CH2         23.4934    29.5575   -29.9244 CH2           1 RES     
    3179 CH3         22.4326    30.0065   -29.0112 CH3           1 RES     
    3180 CH2         32.1505    29.8166   -49.2780 CH2           1 RES     
    3181 OE          33.1610    28.9565   -49.8972 OE            1 RES     
    3182 C           33.6012    28.2207   -48.6664 C             1 RES     
    3183 O           34.4693    27.3496   -48.6486 O             1 RES     
    3184 CH2         32.6657    28.6326   -47.7022 CH2           1 RES     
    3185 CH2         33.0459    27.7667   -46.4867 CH2           1 RES     
    3186 CH2         32.0020    27.9600   -45.3711 CH2           1 RES     
    3187 CH2         32.3822    27.0941   -44.1557 CH2           1 RES     
    3188 CH2         31.3383    27.2874   -43.0401 CH2           1 RES     
    3189 CH2         31.7185    26.4215   -41.8247 CH2           1 RES     
    3190 CH2         30.6746    26.6148   -40.7091 CH2           1 RES     
    3191 CH2         31.0548    25.7489   -39.4937 CH2           1 RES     
    3192 CH2         30.0109    25.9422   -38.3781 CH2           1 RES     
    3193 CH2         30.3911    25.0763   -37.1627 CH2           1 RES     
    3194 CH2         29.3472    25.2696   -36.0471 CH2           1 RES     
    3195 CH2         29.7274    24.4037   -34.8317 CH2           1 RES     
    3196 CH2         28.6835    24.5970   -33.7161 CH2           1 RES     
    3197 CH2         29.0637    23.7311   -32.5006 CH2           1 RES     
    3198 CH2         28.0199    23.9244   -31.3850 CH2           1 RES     
    3199 CH2         28.4000    23.0585   -30.1696 CH2           1 RES     
    3200 CH3         27.4036    23.2431   -29.1047 CH3           1 RES     
    3201 CH3          6.1837    38.3406   -56.7654 CH3           1 RES     
    3202 CH3          7.3304    39.3551   -58.5512 CH3           1 RES     
    3203 CH3          5.2699    39.9077   -58.0694 CH3           1 RES     
    3204 NL           6.4255    39.4946   -57.5746 NL            1 RES     
    3205 CH2          6.7792    40.5482   -56.7359 CH2           1 RES     
    3206 CH2          8.1213    40.0371   -56.1801 CH2           1 RES     
    3207 OA           8.7197    41.7629   -52.7280 OA            1 RES     
    3208 P            8.1359    40.7016   -53.7735 P             1 RES     
    3209 OM           8.6723    39.2637   -53.3212 OM            1 RES     
    3210 OM           6.5435    40.8549   -53.7477 OM            1 RES     
    3211 OA           8.6821    41.0396   -55.2389 OA            1 RES     
    3212 CH2          8.1933    41.4191   -51.3827 CH2           1 RES     
    3213 CH1          8.7352    42.4217   -50.3470 CH1           1 RES     
    3214 OE           7.6112    43.1202   -49.7070 OE            1 RES     
    3215 C            7.9831    42.6305   -48.3389 C             1 RES     
    3216 O            8.9452    41.9033   -48.0969 O             1 RES     
    3217 CH2          6.8897    43.0321   -47.5529 CH2           1 RES     
    3218 CH2          7.2209    42.4040   -46.1864 CH2           1 RES     
    3219 CH2          6.0296    42.5966   -45.2298 CH2           1 RES     
    3220 CH2          6.3608    41.9685   -43.8632 CH2           1 RES     
    3221 CH2          5.1694    42.1611   -42.9066 CH2           1 RES     
    3222 CH2          5.5007    41.5330   -41.5401 CH2           1 RES     
    3223 CH2          4.3093    41.7256   -40.5835 CH2           1 RES     
    3224 CH2          4.6405    41.0975   -39.2169 CH2           1 RES     
    3225 CH2          3.4492    41.2900   -38.2603 CH2           1 RES     
    3226 CH2          3.7804    40.6619   -36.8938 CH2           1 RES     
    3227 CH2          2.5890    40.8545   -35.9372 CH2           1 RES     
    3228 CH2          2.9203    40.2264   -34.5707 CH2           1 RES     
    3229 CH2          1.7289    40.4190   -33.6140 CH2           1 RES     
    3230 CH2          2.0601    39.7909   -32.2475 CH2           1 RES     
    3231 CH2          0.8688    39.9835   -31.2909 CH2           1 RES     
    3232 CH2          1.2000    39.3554   -29.9244 CH2           1 RES     
    3233 CH3          0.0628    39.5392   -29.0112 CH3           1 RES     
    3234 CH2          9.5468    41.6666   -49.2780 CH2           1 RES     
    3235 OE          10.7330    41.0716   -49.8972 OE            1 RES     
    3236 C           11.3356    40.4617   -48.6664 C             1 RES     
    3237 O           12.3860    39.8221   -48.6486 O             1 RES     
    3238 CH2         10.3289    40.6392   -47.7022 CH2           1 RES     
    3239 CH2         10.9042    39.8886   -46.4867 CH2           1 RES     
    3240 CH2          9.8443    39.8280   -45.3711 CH2           1 RES     
    3241 CH2         10.4196    39.0774   -44.1557 CH2           1 RES     
    3242 CH2          9.3597    39.0169   -43.0401 CH2           1 RES     
    3243 CH2          9.9350    38.2662   -41.8247 CH2           1 RES     
    3244 CH2          8.8751    38.2057   -40.7091 CH2           1 RES     
    3245 CH2          9.4503    37.4551   -39.4937 CH2           1 RES     
    3246 CH2          8.3904    37.3945   -38.3781 CH2           1 RES     
    3247 CH2          8.9657    36.6439   -37.1627 CH2           1 RES     
    3248 CH2          7.9058    36.5833   -36.0471 CH2           1 RES     
    3249 CH2          8.4811    35.8327   -34.8317 CH2           1 RES     
    3250 CH2          7.4212    35.7721   -33.7161 CH2           1 RES     
    3251 CH2          7.9965    35.0215   -32.5006 CH2           1 RES     
    3252 CH2          6.9366    34.9610   -31.3850 CH2           1 RES     
    3253 CH2          7.5118    34.2104   -30.1696 CH2           1 RES     
    3254 CH3          6.5001    34.1525   -29.1047 CH3           1 RES     
    3255 CH3         11.6610     0.0000   -56.7654 CH3           1 RES     
    3256 CH3         12.8453     0.9703   -58.5512 CH3           1 RES     
    3257 CH3         10.8073     1.6006   -58.0694 CH3           1 RES     
    3258 NL          11.9463     1.1440   -57.5746 NL            1 RES     
    3259 CH2         12.3397     2.1834   -56.7359 CH2           1 RES     
    3260 CH2         13.6616     1.6217   -56.1801 CH2           1 RES     
    3261 OA          14.3250     3.3236   -52.7280 OA            1 RES     
    3262 P           13.7014     2.2853   -53.7735 P             1 RES     
    3263 OM          14.1828     0.8280   -53.3212 OM            1 RES     
    3264 OM          12.1159     2.4989   -53.7477 OM            1 RES     
    3265 OA          14.2600     2.6022   -55.2389 OA            1 RES     
    3266 CH2         13.7859     3.0000   -51.3827 CH2           1 RES     
    3267 CH1         14.3655     3.9813   -50.3470 CH1           1 RES     
    3268 OE          13.2688     4.7220   -49.7070 OE            1 RES     
    3269 C           13.6218     4.2185   -48.3389 C             1 RES     
    3270 O           14.5556     3.4554   -48.0969 O             1 RES     
    3271 CH2         12.5445     4.6613   -47.5529 CH2           1 RES     
    3272 CH2         12.8516     4.0211   -46.1864 CH2           1 RES     
    3273 CH2         11.6684     4.2588   -45.2298 CH2           1 RES     
    3274 CH2         11.9756     3.6186   -43.8632 CH2           1 RES     
    3275 CH2         10.7924     3.8562   -42.9066 CH2           1 RES     
    3276 CH2         11.0995     3.2160   -41.5401 CH2           1 RES     
    3277 CH2          9.9163     3.4537   -40.5835 CH2           1 RES     
    3278 CH2         10.2235     2.8135   -39.2169 CH2           1 RES     
    3279 CH2          9.0403     3.0511   -38.2603 CH2           1 RES     
    3280 CH2          9.3475     2.4109   -36.8938 CH2           1 RES     
    3281 CH2          8.1642     2.6486   -35.9372 CH2           1 RES     
    3282 CH2          8.4714     2.0084   -34.5707 CH2           1 RES     
    3283 CH2          7.2882     2.2460   -33.6140 CH2           1 RES     
    3284 CH2          7.5954     1.6058   -32.2475 CH2           1 RES     
    3285 CH2          6.4122     1.8434   -31.2909 CH2           1 RES     
    3286 CH2          6.7193     1.2032   -29.9244 CH2           1 RES     
    3287 CH3          5.5899     1.4301   -29.0112 CH3           1 RES     
    3288 CH2         15.1479     3.1960   -49.2780 CH2           1 RES     
    3289 OE          16.3106     2.5564   -49.8972 OE            1 RES     
    3290 C           16.8896     1.9241   -48.6664 C             1 RES     
    3291 O           17.9150     1.2450   -48.6486 O             1 RES     
    3292 CH2         15.8904     2.1397   -47.7022 CH2           1 RES     
    3293 CH2         16.4368     1.3678   -46.4867 CH2           1 RES     
    3294 CH2         15.3753     1.3475   -45.3711 CH2           1 RES     
    3295 CH2         15.9217     0.5756   -44.1557 CH2           1 RES     
    3296 CH2         14.8603     0.5553   -43.0401 CH2           1 RES     
    3297 CH2         15.4067    -0.2166   -41.8247 CH2           1 RES     
    3298 CH2         14.3452    -0.2369   -40.7091 CH2           1 RES     
    3299 CH2         14.8916    -1.0088   -39.4937 CH2           1 RES     
    3300 CH2         13.8302    -1.0291   -38.3781 CH2           1 RES     
    3301 CH2         14.3765    -1.8010   -37.1627 CH2           1 RES     
    3302 CH2         13.3151    -1.8213   -36.0471 CH2           1 RES     
    3303 CH2         13.8615    -2.5932   -34.8317 CH2           1 RES     
    3304 CH2         12.8001    -2.6135   -33.7161 CH2           1 RES     
    3305 CH2         13.3464    -3.3854   -32.5006 CH2           1 RES     
    3306 CH2         12.2850    -3.4057   -31.3850 CH2           1 RES     
    3307 CH2         12.8314    -4.1776   -30.1696 CH2           1 RES     
    3308 CH3         11.8182    -4.1970   -29.1047 CH3           1 RES     
    3309 CH3         39.0471     0.0000   -56.7654 CH3           1 RES     
    3310 CH3         40.0286     1.1750   -58.5512 CH3           1 RES     
    3311 CH3         37.9086     1.4123   -58.0694 CH3           1 RES     
    3312 NL          39.1130     1.1772   -57.5746 NL            1 RES     
    3313 CH2         39.3047     2.2719   -56.7359 CH2           1 RES     
    3314 CH2         40.7083     1.9679   -56.1801 CH2           1 RES     
    3315 OA          41.0411     3.7640   -52.7280 OA            1 RES     
    3316 P           40.6231     2.6272   -53.7735 P             1 RES     
    3317 OM          41.3691     1.2859   -53.3212 OM            1 RES     
    3318 OM          39.0257     2.5398   -53.7477 OM            1 RES     
    3319 OA          41.1124     3.0432   -55.2389 OA            1 RES     
    3320 CH2         40.5721     3.3451   -51.3827 CH2           1 RES     
    3321 CH1         40.9575     4.4176   -50.3470 CH1           1 RES     
    3322 OE          39.7415     4.9397   -49.7070 OE            1 RES     
    3323 C           40.1827     4.5112   -48.3389 C             1 RES     
    3324 O           41.2429     3.9366   -48.0969 O             1 RES     
    3325 CH2         39.0414     4.7443   -47.5529 CH2           1 RES     
    3326 CH2         39.4631     4.1730   -46.1864 CH2           1 RES     
    3327 CH2         38.2563     4.1847   -45.2298 CH2           1 RES     
    3328 CH2         38.6780     3.6134   -43.8632 CH2           1 RES     
    3329 CH2         37.4712     3.6251   -42.9066 CH2           1 RES     
    3330 CH2         37.8929     3.0538   -41.5401 CH2           1 RES     
    3331 CH2         36.6861     3.0655   -40.5835 CH2           1 RES     
    3332 CH2         37.1078     2.4942   -39.2169 CH2           1 RES     
    3333 CH2         35.9011     2.5059   -38.2603 CH2           1 RES     
    3334 CH2         36.3228     1.9346   -36.8938 CH2           1 RES     
    3335 CH2         35.1160     1.9463   -35.9372 CH2           1 RES     
    3336 CH2         35.5377     1.3750   -34.5707 CH2           1 RES     
    3337 CH2         34.3309     1.3867   -33.6140 CH2           1 RES     
    3338 CH2         34.7526     0.8154   -32.2475 CH2           1 RES     
    3339 CH2         33.5458     0.8271   -31.2909 CH2           1 RES     
    3340 CH2         33.9675     0.2558   -29.9244 CH2           1 RES     
    3341 CH3         32.8156     0.2670   -29.0112 CH3           1 RES     
    3342 CH2         41.8733     3.7929   -49.2780 CH2           1 RES     
    3343 OE          43.1353     3.3825   -49.8972 OE            1 RES     
    3344 C           43.8225     2.8699   -48.6664 C             1 RES     
    3345 O           44.9570     2.3950   -48.6486 O             1 RES     
    3346 CH2         42.8006     2.8944   -47.7022 CH2           1 RES     
    3347 CH2         43.4820     2.2385   -46.4867 CH2           1 RES     
    3348 CH2         42.4432     2.0197   -45.3711 CH2           1 RES     
    3349 CH2         43.1245     1.3638   -44.1557 CH2           1 RES     
    3350 CH2         42.0857     1.1450   -43.0401 CH2           1 RES     
    3351 CH2         42.7670     0.4891   -41.8247 CH2           1 RES     
    3352 CH2         41.7282     0.2703   -40.7091 CH2           1 RES     
    3353 CH2         42.4096    -0.3855   -39.4937 CH2           1 RES     
    3354 CH2         41.3707    -0.6044   -38.3781 CH2           1 RES     
    3355 CH2         42.0521    -1.2602   -37.1627 CH2           1 RES     
    3356 CH2         41.0133    -1.4791   -36.0471 CH2           1 RES     
    3357 CH2         41.6946    -2.1349   -34.8317 CH2           1 RES     
    3358 CH2         40.6558    -2.3538   -33.7161 CH2           1 RES     
    3359 CH2         41.3371    -3.0096   -32.5006 CH2           1 RES     
    3360 CH2         40.2983    -3.2285   -31.3850 CH2           1 RES     
    3361 CH2         40.9797    -3.8843   -30.1696 CH2           1 RES     
    3362 CH3         39.9881    -4.0932   -29.1047 CH3           1 RES     
    3363 CH3          0.7065    10.9545   -56.7654 CH3           1 RES     
    3364 CH3          1.8788    11.9392   -58.5512 CH3           1 RES     
    3365 CH3         -0.1667    12.5445   -58.0694 CH3           1 RES     
    3366 NL           0.9778    12.1019   -57.5746 NL            1 RES     
    3367 CH2          1.3584    13.1460   -56.7359 CH2           1 RES     
    3368 CH2          2.6870    12.6006   -56.1801 CH2           1 RES     
    3369 OA           3.3296    14.3105   -52.7280 OA            1 RES     
    3370 P            2.7187    13.2646   -53.7735 P             1 RES     
    3371 OM           3.2180    11.8133   -53.3212 OM            1 RES     
    3372 OM           1.1307    13.4587   -53.7477 OM            1 RES     
    3373 OA           3.2734    13.5884   -55.2389 OA            1 RES     
    3374 CH2          2.7944    13.9803   -51.3827 CH2           1 RES     
    3375 CH1          3.3619    14.9687   -50.3470 CH1           1 RES     
    3376 OE           2.2562    15.6959   -49.7070 OE            1 RES     
    3377 C            2.6155    15.1967   -48.3389 C             1 RES     
    3378 O            3.5585    14.4451   -48.0969 O             1 RES     
    3379 CH2          1.5327    15.6263   -47.5529 CH2           1 RES     
    3380 CH2          1.8477    14.9899   -46.1864 CH2           1 RES     
    3381 CH2          0.6617    15.2130   -45.2298 CH2           1 RES     
    3382 CH2          0.9767    14.5766   -43.8632 CH2           1 RES     
    3383 CH2         -0.2093    14.7997   -42.9066 CH2           1 RES     
    3384 CH2          0.1057    14.1633   -41.5401 CH2           1 RES     
    3385 CH2         -1.0804    14.3864   -40.5835 CH2           1 RES     
    3386 CH2         -0.7654    13.7501   -39.2169 CH2           1 RES     
    3387 CH2         -1.9514    13.9732   -38.2603 CH2           1 RES     
    3388 CH2         -1.6364    13.3368   -36.8938 CH2           1 RES     
    3389 CH2         -2.8225    13.5599   -35.9372 CH2           1 RES     
    3390 CH2         -2.5074    12.9235   -34.5707 CH2           1 RES     
    3391 CH2         -3.6935    13.1466   -33.6140 CH2           1 RES     
    3392 CH2         -3.3785    12.5102   -32.2475 CH2           1 RES     
    3393 CH2         -4.5645    12.7333   -31.2909 CH2           1 RES     
    3394 CH2         -4.2495    12.0969   -29.9244 CH2           1 RES     
    3395 CH3         -5.3817    12.3099   -29.0112 CH3           1 RES     
    3396 CH2          4.1539    14.1930   -49.2780 CH2           1 RES     
    3397 OE           5.3244    13.5677   -49.8972 OE            1 RES     
    3398 C            5.9111    12.9426   -48.6664 C             1 RES     
    3399 O            6.9448    12.2762   -48.6486 O             1 RES     
    3400 CH2          4.9094    13.1459   -47.7022 CH2           1 RES     
    3401 CH2          5.4652    12.3807   -46.4867 CH2           1 RES     
    3402 CH2          4.4041    12.3474   -45.3711 CH2           1 RES     
    3403 CH2          4.9599    11.5823   -44.1557 CH2           1 RES     
    3404 CH2          3.8988    11.5489   -43.0401 CH2           1 RES     
    3405 CH2          4.4546    10.7838   -41.8247 CH2           1 RES     
    3406 CH2          3.3935    10.7505   -40.7091 CH2           1 RES     
    3407 CH2          3.9493     9.9853   -39.4937 CH2           1 RES     
    3408 CH2          2.8882     9.9520   -38.3781 CH2           1 RES     
    3409 CH2          3.4440     9.1869   -37.1627 CH2           1 RES     
    3410 CH2          2.3829     9.1536   -36.0471 CH2           1 RES     
    3411 CH2          2.9387     8.3884   -34.8317 CH2           1 RES     
    3412 CH2          1.8776     8.3551   -33.7161 CH2           1 RES     
    3413 CH2          2.4334     7.5899   -32.5006 CH2           1 RES     
    3414 CH2          1.3723     7.5566   -31.3850 CH2           1 RES     
    3415 CH2          1.9281     6.7915   -30.1696 CH2           1 RES     
    3416 CH3          0.9152     6.7597   -29.1047 CH3           1 RES     
    3417 CH3          6.1837    32.8634   -56.7654 CH3           1 RES     
    3418 CH3          7.5378    33.5778   -58.5512 CH3           1 RES     
    3419 CH3          5.6666    34.6021   -58.0694 CH3           1 RES     
    3420 NL           6.6916    33.9274   -57.5746 NL            1 RES     
    3421 CH2          7.2845    34.8674   -56.7359 CH2           1 RES     
    3422 CH2          8.4677    34.0533   -56.1801 CH2           1 RES     
    3423 OA           9.4574    35.5886   -52.7280 OA            1 RES     
    3424 P            8.6391    34.6956   -53.7735 P             1 RES     
    3425 OM           8.8201    33.1715   -53.3212 OM            1 RES     
    3426 OM           7.1281    35.2212   -53.7477 OM            1 RES     
    3427 OA           9.2497    34.8947   -55.2389 OA            1 RES     
    3428 CH2          8.8645    35.3791   -51.3827 CH2           1 RES     
    3429 CH1          9.6282    36.2250   -50.3470 CH1           1 RES     
    3430 OE           8.7014    37.1697   -49.7070 OE            1 RES     
    3431 C            8.9469    36.6058   -48.3389 C             1 RES     
    3432 O            9.7096    35.6717   -48.0969 O             1 RES     
    3433 CH2          7.9795    37.2547   -47.5529 CH2           1 RES     
    3434 CH2          8.1528    36.5661   -46.1864 CH2           1 RES     
    3435 CH2          7.0408    37.0350   -45.2298 CH2           1 RES     
    3436 CH2          7.2140    36.3464   -43.8632 CH2           1 RES     
    3437 CH2          6.1020    36.8153   -42.9066 CH2           1 RES     
    3438 CH2          6.2753    36.1267   -41.5401 CH2           1 RES     
    3439 CH2          5.1633    36.5957   -40.5835 CH2           1 RES     
    3440 CH2          5.3365    35.9071   -39.2169 CH2           1 RES     
    3441 CH2          4.2245    36.3760   -38.2603 CH2           1 RES     
    3442 CH2          4.3978    35.6874   -36.8938 CH2           1 RES     
    3443 CH2          3.2858    36.1563   -35.9372 CH2           1 RES     
    3444 CH2          3.4590    35.4677   -34.5707 CH2           1 RES     
    3445 CH2          2.3470    35.9367   -33.6140 CH2           1 RES     
    3446 CH2          2.5203    35.2480   -32.2475 CH2           1 RES     
    3447 CH2          1.4083    35.7170   -31.2909 CH2           1 RES     
    3448 CH2          1.5815    35.0284   -29.9244 CH2           1 RES     
    3449 CH3          0.5201    35.4760   -29.0112 CH3           1 RES     
    3450 CH2         10.2382    35.2994   -49.2780 CH2           1 RES     
    3451 OE          11.2499    34.4406   -49.8972 OE            1 RES     
    3452 C           11.6911    33.7055   -48.6664 C             1 RES     
    3453 O           12.5604    32.8355   -48.6486 O             1 RES     
    3454 CH2         10.7550    34.1161   -47.7022 CH2           1 RES     
    3455 CH2         11.1364    33.2507   -46.4867 CH2           1 RES     
    3456 CH2         10.0923    33.4426   -45.3711 CH2           1 RES     
    3457 CH2         10.4737    32.5772   -44.1557 CH2           1 RES     
    3458 CH2          9.4295    32.7691   -43.0401 CH2           1 RES     
    3459 CH2          9.8109    31.9037   -41.8247 CH2           1 RES     
    3460 CH2          8.7668    32.0956   -40.7091 CH2           1 RES     
    3461 CH2          9.1481    31.2302   -39.4937 CH2           1 RES     
    3462 CH2          8.1040    31.4221   -38.3781 CH2           1 RES     
    3463 CH2          8.4854    30.5567   -37.1627 CH2           1 RES     
    3464 CH2          7.4412    30.7486   -36.0471 CH2           1 RES     
    3465 CH2          7.8226    29.8832   -34.8317 CH2           1 RES     
    3466 CH2          6.7785    30.0751   -33.7161 CH2           1 RES     
    3467 CH2          7.1598    29.2097   -32.5006 CH2           1 RES     
    3468 CH2          6.1157    29.4016   -31.3850 CH2           1 RES     
    3469 CH2          6.4971    28.5362   -30.1696 CH2           1 RES     
    3470 CH3          5.5004    28.7193   -29.1047 CH3           1 RES     
    3471 CH3         17.1382    10.9545   -56.7654 CH3           1 RES     
    3472 CH3         18.1934    12.0637   -58.5512 CH3           1 RES     
    3473 CH3         16.0931    12.4372   -58.0694 CH3           1 RES     
    3474 NL          17.2799    12.1250   -57.5746 NL            1 RES     
    3475 CH2         17.5418    13.2051   -56.7359 CH2           1 RES     
    3476 CH2         18.9229    12.8111   -56.1801 CH2           1 RES     
    3477 OA          19.3708    14.5820   -52.7280 OA            1 RES     
    3478 P           18.8803    13.4745   -53.7735 P             1 RES     
    3479 OM          19.5383    12.0879   -53.3212 OM            1 RES     
    3480 OM          17.2806    13.4904   -53.7477 OM            1 RES     
    3481 OA          19.3954    13.8581   -55.2389 OA            1 RES     
    3482 CH2         18.8758    14.1942   -51.3827 CH2           1 RES     
    3483 CH1         19.3296    15.2397   -50.3470 CH1           1 RES     
    3484 OE          18.1497    15.8391   -49.7070 OE            1 RES     
    3485 C           18.5623    15.3831   -48.3389 C             1 RES     
    3486 O           19.5833    14.7412   -48.0969 O             1 RES     
    3487 CH2         17.4385    15.6893   -47.5529 CH2           1 RES     
    3488 CH2         17.8225    15.0920   -46.1864 CH2           1 RES     
    3489 CH2         16.6189    15.1815   -45.2298 CH2           1 RES     
    3490 CH2         17.0029    14.5842   -43.8632 CH2           1 RES     
    3491 CH2         15.7994    14.6737   -42.9066 CH2           1 RES     
    3492 CH2         16.1834    14.0764   -41.5401 CH2           1 RES     
    3493 CH2         14.9799    14.1659   -40.5835 CH2           1 RES     
    3494 CH2         15.3638    13.5686   -39.2169 CH2           1 RES     
    3495 CH2         14.1603    13.6581   -38.2603 CH2           1 RES     
    3496 CH2         14.5443    13.0608   -36.8938 CH2           1 RES     
    3497 CH2         13.3408    13.1503   -35.9372 CH2           1 RES     
    3498 CH2         13.7248    12.5530   -34.5707 CH2           1 RES     
    3499 CH2         12.5212    12.6425   -33.6140 CH2           1 RES     
    3500 CH2         12.9052    12.0452   -32.2475 CH2           1 RES     
    3501 CH2         11.7017    12.1347   -31.2909 CH2           1 RES     
    3502 CH2         12.0857    11.5374   -29.9244 CH2           1 RES     
    3503 CH3         10.9369    11.6228   -29.0112 CH3           1 RES     
    3504 CH2         20.2031    14.5571   -49.2780 CH2           1 RES     
    3505 OE          21.4360    14.0662   -49.8972 OE            1 RES     
    3506 C           22.0887    13.5103   -48.6664 C             1 RES     
    3507 O           23.1903    12.9633   -48.6486 O             1 RES     
    3508 CH2         21.0706    13.6007   -47.7022 CH2           1 RES     
    3509 CH2         21.7082    12.9023   -46.4867 CH2           1 RES     
    3510 CH2         20.6574    12.7509   -45.3711 CH2           1 RES     
    3511 CH2         21.2951    12.0525   -44.1557 CH2           1 RES     
    3512 CH2         20.2443    11.9011   -43.0401 CH2           1 RES     
    3513 CH2         20.8819    11.2027   -41.8247 CH2           1 RES     
    3514 CH2         19.8312    11.0513   -40.7091 CH2           1 RES     
    3515 CH2         20.4688    10.3529   -39.4937 CH2           1 RES     
    3516 CH2         19.4180    10.2015   -38.3781 CH2           1 RES     
    3517 CH2         20.0556     9.5030   -37.1627 CH2           1 RES     
    3518 CH2         19.0049     9.3516   -36.0471 CH2           1 RES     
    3519 CH2         19.6425     8.6532   -34.8317 CH2           1 RES     
    3520 CH2         18.5917     8.5018   -33.7161 CH2           1 RES     
    3521 CH2         19.2294     7.8034   -32.5006 CH2           1 RES     
    3522 CH2         18.1786     7.6520   -31.3850 CH2           1 RES     
    3523 CH2         18.8162     6.9536   -30.1696 CH2           1 RES     
    3524 CH3         17.8132     6.8091   -29.1047 CH3           1 RES     
    3525 CH3         17.1382    38.3406   -56.7654 CH3           1 RES     
    3526 CH3         18.4882    39.0628   -58.5512 CH3           1 RES     
    3527 CH3         16.6111    40.0764   -58.0694 CH3           1 RES     
    3528 NL          17.6400    39.4075   -57.5746 NL            1 RES     
    3529 CH2         18.2275    40.3509   -56.7359 CH2           1 RES     
    3530 CH2         19.4153    39.5436   -56.1801 CH2           1 RES     
    3531 OA          20.3962    41.0845   -52.7280 OA            1 RES     
    3532 P           19.5830    40.1868   -53.7735 P             1 RES     
    3533 OM          19.7727    38.6638   -53.3212 OM            1 RES     
    3534 OM          18.0690    40.7038   -53.7477 OM            1 RES     
    3535 OA          20.1925    40.3894   -55.2389 OA            1 RES     
    3536 CH2         19.8045    40.8716   -51.3827 CH2           1 RES     
    3537 CH1         20.5634    41.7219   -50.3470 CH1           1 RES     
    3538 OE          19.6311    42.6612   -49.7070 OE            1 RES     
    3539 C           19.8799    42.0988   -48.3389 C             1 RES     
    3540 O           20.6479    41.1690   -48.0969 O             1 RES     
    3541 CH2         18.9088    42.7421   -47.5529 CH2           1 RES     
    3542 CH2         19.0860    42.0545   -46.1864 CH2           1 RES     
    3543 CH2         17.9713    42.5171   -45.2298 CH2           1 RES     
    3544 CH2         18.1485    41.8295   -43.8632 CH2           1 RES     
    3545 CH2         17.0339    42.2920   -42.9066 CH2           1 RES     
    3546 CH2         17.2111    41.6044   -41.5401 CH2           1 RES     
    3547 CH2         16.0964    42.0670   -40.5835 CH2           1 RES     
    3548 CH2         16.2736    41.3794   -39.2169 CH2           1 RES     
    3549 CH2         15.1589    41.8420   -38.2603 CH2           1 RES     
    3550 CH2         15.3361    41.1543   -36.8938 CH2           1 RES     
    3551 CH2         14.2214    41.6169   -35.9372 CH2           1 RES     
    3552 CH2         14.3986    40.9293   -34.5707 CH2           1 RES     
    3553 CH2         13.2840    41.3919   -33.6140 CH2           1 RES     
    3554 CH2         13.4612    40.7043   -32.2475 CH2           1 RES     
    3555 CH2         12.3465    41.1669   -31.2909 CH2           1 RES     
    3556 CH2         12.5237    40.4792   -29.9244 CH2           1 RES     
    3557 CH3         11.4597    40.9208   -29.0112 CH3           1 RES     
    3558 CH2         21.1787    40.7998   -49.2780 CH2           1 RES     
    3559 OE          22.1953    39.9468   -49.8972 OE            1 RES     
    3560 C           22.6407    39.2142   -48.6664 C             1 RES     
    3561 O           23.5149    38.3492   -48.6486 O             1 RES     
    3562 CH2         21.7023    39.6195   -47.7022 CH2           1 RES     
    3563 CH2         22.0886    38.7563   -46.4867 CH2           1 RES     
    3564 CH2         21.0434    38.9422   -45.3711 CH2           1 RES     
    3565 CH2         21.4297    38.0790   -44.1557 CH2           1 RES     
    3566 CH2         20.3845    38.2649   -43.0401 CH2           1 RES     
    3567 CH2         20.7708    37.4017   -41.8247 CH2           1 RES     
    3568 CH2         19.7256    37.5876   -40.7091 CH2           1 RES     
    3569 CH2         20.1119    36.7244   -39.4937 CH2           1 RES     
    3570 CH2         19.0667    36.9103   -38.3781 CH2           1 RES     
    3571 CH2         19.4530    36.0471   -37.1627 CH2           1 RES     
    3572 CH2         18.4078    36.2330   -36.0471 CH2           1 RES     
    3573 CH2         18.7941    35.3698   -34.8317 CH2           1 RES     
    3574 CH2         17.7489    35.5558   -33.7161 CH2           1 RES     
    3575 CH2         18.1352    34.6926   -32.5006 CH2           1 RES     
    3576 CH2         17.0900    34.8785   -31.3850 CH2           1 RES     
    3577 CH2         17.4763    34.0153   -30.1696 CH2           1 RES     
    3578 CH3         16.4786    34.1927   -29.1047 CH3           1 RES     
    3579 CH3          6.1837    10.9545   -56.7654 CH3           1 RES     
    3580 CH3          7.3731    11.9185   -58.5512 CH3           1 RES     
    3581 CH3          5.3385    12.5595   -58.0694 CH3           1 RES     
    3582 NL           6.4751    12.0970   -57.5746 NL            1 RES     
    3583 CH2          6.8739    13.1343   -56.7359 CH2           1 RES     
    3584 CH2          8.1928    12.5657   -56.1801 CH2           1 RES     
    3585 OA           8.8652    14.2640   -52.7280 OA            1 RES     
    3586 P            8.2361    13.2290   -53.7735 P             1 RES     
    3587 OM           8.7099    11.7692   -53.3212 OM            1 RES     
    3588 OM           6.6517    13.4509   -53.7477 OM            1 RES     
    3589 OA           8.7963    13.5430   -55.2389 OA            1 RES     
    3590 CH2          8.3243    13.9433   -51.3827 CH2           1 RES     
    3591 CH1          8.9090    14.9216   -50.3470 CH1           1 RES     
    3592 OE           7.8162    15.6680   -49.7070 OE            1 RES     
    3593 C            8.1667    15.1626   -48.3389 C             1 RES     
    3594 O            9.0964    14.3946   -48.0969 O             1 RES     
    3595 CH2          7.0916    15.6111   -47.5529 CH2           1 RES     
    3596 CH2          7.3954    14.9693   -46.1864 CH2           1 RES     
    3597 CH2          6.2135    15.2131   -45.2298 CH2           1 RES     
    3598 CH2          6.5173    14.5713   -43.8632 CH2           1 RES     
    3599 CH2          5.3354    14.8152   -42.9066 CH2           1 RES     
    3600 CH2          5.6392    14.1734   -41.5401 CH2           1 RES     
    3601 CH2          4.4572    14.4172   -40.5835 CH2           1 RES     
    3602 CH2          4.7610    13.7754   -39.2169 CH2           1 RES     
    3603 CH2          3.5791    14.0192   -38.2603 CH2           1 RES     
    3604 CH2          3.8829    13.3774   -36.8938 CH2           1 RES     
    3605 CH2          2.7009    13.6213   -35.9372 CH2           1 RES     
    3606 CH2          3.0047    12.9795   -34.5707 CH2           1 RES     
    3607 CH2          1.8228    13.2233   -33.6140 CH2           1 RES     
    3608 CH2          2.1266    12.5815   -32.2475 CH2           1 RES     
    3609 CH2          0.9447    12.8253   -31.2909 CH2           1 RES     
    3610 CH2          1.2485    12.1835   -29.9244 CH2           1 RES     
    3611 CH3          0.1202    12.4163   -29.0112 CH3           1 RES     
    3612 CH2          9.6873    14.1322   -49.2780 CH2           1 RES     
    3613 OE          10.8467    13.4865   -49.8972 OE            1 RES     
    3614 C           11.4224    12.8511   -48.6664 C             1 RES     
    3615 O           12.4442    12.1667   -48.6486 O             1 RES     
    3616 CH2         10.4243    13.0719   -47.7022 CH2           1 RES     
    3617 CH2         10.9666    12.2972   -46.4867 CH2           1 RES     
    3618 CH2          9.9051    12.2824   -45.3711 CH2           1 RES     
    3619 CH2         10.4474    11.5077   -44.1557 CH2           1 RES     
    3620 CH2          9.3859    11.4930   -43.0401 CH2           1 RES     
    3621 CH2          9.9282    10.7182   -41.8247 CH2           1 RES     
    3622 CH2          8.8667    10.7035   -40.7091 CH2           1 RES     
    3623 CH2          9.4090     9.9287   -39.4937 CH2           1 RES     
    3624 CH2          8.3475     9.9140   -38.3781 CH2           1 RES     
    3625 CH2          8.8898     9.1392   -37.1627 CH2           1 RES     
    3626 CH2          7.8283     9.1245   -36.0471 CH2           1 RES     
    3627 CH2          8.3707     8.3497   -34.8317 CH2           1 RES     
    3628 CH2          7.3091     8.3350   -33.7161 CH2           1 RES     
    3629 CH2          7.8515     7.5602   -32.5006 CH2           1 RES     
    3630 CH2          6.7899     7.5455   -31.3850 CH2           1 RES     
    3631 CH2          7.3323     6.7707   -30.1696 CH2           1 RES     
    3632 CH3          6.3190     6.7567   -29.1047 CH3           1 RES     
    3633 CH3         28.0926    16.4317   -56.7654 CH3           1 RES     
    3634 CH3         29.2183    17.4695   -58.5512 CH3           1 RES     
    3635 CH3         27.1469    17.9797   -58.0694 CH3           1 RES     
    3636 NL          28.3107    17.5904   -57.5746 NL            1 RES     
    3637 CH2         28.6427    18.6510   -56.7359 CH2           1 RES     
    3638 CH2         29.9951    18.1675   -56.1801 CH2           1 RES     
    3639 OA          30.5580    19.9053   -52.7280 OA            1 RES     
    3640 P           29.9960    18.8323   -53.7735 P             1 RES     
    3641 OM          30.5618    17.4056   -53.3212 OM            1 RES     
    3642 OM          28.4008    18.9528   -53.7477 OM            1 RES     
    3643 OA          30.5351    19.1813   -55.2389 OA            1 RES     
    3644 CH2         30.0386    19.5507   -51.3827 CH2           1 RES     
    3645 CH1         30.5599    20.5642   -50.3470 CH1           1 RES     
    3646 OE          29.4218    21.2396   -49.7070 OE            1 RES     
    3647 C           29.8037    20.7576   -48.3389 C             1 RES     
    3648 O           30.7804    20.0503   -48.0969 O             1 RES     
    3649 CH2         28.7023    21.1367   -47.5529 CH2           1 RES     
    3650 CH2         29.0463    20.5155   -46.1864 CH2           1 RES     
    3651 CH2         27.8512    20.6836   -45.2298 CH2           1 RES     
    3652 CH2         28.1953    20.0625   -43.8632 CH2           1 RES     
    3653 CH2         27.0002    20.2306   -42.9066 CH2           1 RES     
    3654 CH2         27.3443    19.6094   -41.5401 CH2           1 RES     
    3655 CH2         26.1492    19.7775   -40.5835 CH2           1 RES     
    3656 CH2         26.4932    19.1563   -39.2169 CH2           1 RES     
    3657 CH2         25.2982    19.3245   -38.2603 CH2           1 RES     
    3658 CH2         25.6422    18.7033   -36.8938 CH2           1 RES     
    3659 CH2         24.4471    18.8714   -35.9372 CH2           1 RES     
    3660 CH2         24.7912    18.2502   -34.5707 CH2           1 RES     
    3661 CH2         23.5961    18.4183   -33.6140 CH2           1 RES     
    3662 CH2         23.9402    17.7972   -32.2475 CH2           1 RES     
    3663 CH2         22.7451    17.9653   -31.2909 CH2           1 RES     
    3664 CH2         23.0891    17.3441   -29.9244 CH2           1 RES     
    3665 CH3         21.9484    17.5046   -29.0112 CH3           1 RES     
    3666 CH2         31.3869    19.8260   -49.2780 CH2           1 RES     
    3667 OE          32.5849    19.2554   -49.8972 OE            1 RES     
    3668 C           33.1999    18.6580   -48.6664 C             1 RES     
    3669 O           34.2632    18.0400   -48.6486 O             1 RES     
    3670 CH2         32.1898    18.8148   -47.7022 CH2           1 RES     
    3671 CH2         32.7804    18.0762   -46.4867 CH2           1 RES     
    3672 CH2         31.7219    17.9939   -45.3711 CH2           1 RES     
    3673 CH2         32.3125    17.2552   -44.1557 CH2           1 RES     
    3674 CH2         31.2541    17.1729   -43.0401 CH2           1 RES     
    3675 CH2         31.8446    16.4343   -41.8247 CH2           1 RES     
    3676 CH2         30.7862    16.3520   -40.7091 CH2           1 RES     
    3677 CH2         31.3767    15.6133   -39.4937 CH2           1 RES     
    3678 CH2         30.3183    15.5310   -38.3781 CH2           1 RES     
    3679 CH2         30.9088    14.7924   -37.1627 CH2           1 RES     
    3680 CH2         29.8504    14.7101   -36.0471 CH2           1 RES     
    3681 CH2         30.4409    13.9714   -34.8317 CH2           1 RES     
    3682 CH2         29.3825    13.8892   -33.7161 CH2           1 RES     
    3683 CH2         29.9730    13.1505   -32.5006 CH2           1 RES     
    3684 CH2         28.9146    13.0682   -31.3850 CH2           1 RES     
    3685 CH2         29.5051    12.3296   -30.1696 CH2           1 RES     
    3686 CH3         28.4948    12.2510   -29.1047 CH3           1 RES     
    3687 CH3         22.6154    32.8634   -56.7654 CH3           1 RES     
    3688 CH3         23.4948    34.1166   -58.5512 CH3           1 RES     
    3689 CH3         21.3624    34.1751   -58.0694 CH3           1 RES     
    3690 NL          22.5823    34.0420   -57.5746 NL            1 RES     
    3691 CH2         22.6814    35.1489   -56.7359 CH2           1 RES     
    3692 CH2         24.1056    34.9638   -56.1801 CH2           1 RES     
    3693 OA          24.2865    36.7814   -52.7280 OA            1 RES     
    3694 P           23.9653    35.6135   -53.7735 P             1 RES     
    3695 OM          24.8213    34.3396   -53.3212 OM            1 RES     
    3696 OM          22.3809    35.3924   -53.7477 OM            1 RES     
    3697 OA          24.4180    36.0691   -55.2389 OA            1 RES     
    3698 CH2         23.8543    36.3247   -51.3827 CH2           1 RES     
    3699 CH1         24.1483    37.4258   -50.3470 CH1           1 RES     
    3700 OE          22.8927    37.8439   -49.7070 OE            1 RES     
    3701 C           23.3683    37.4540   -48.3389 C             1 RES     
    3702 O           24.4731    36.9704   -48.0969 O             1 RES     
    3703 CH2         22.2115    37.5905   -47.5529 CH2           1 RES     
    3704 CH2         22.6797    37.0566   -46.1864 CH2           1 RES     
    3705 CH2         21.4762    36.9669   -45.2298 CH2           1 RES     
    3706 CH2         21.9443    36.4331   -43.8632 CH2           1 RES     
    3707 CH2         20.7408    36.3434   -42.9066 CH2           1 RES     
    3708 CH2         21.2090    35.8095   -41.5401 CH2           1 RES     
    3709 CH2         20.0055    35.7199   -40.5835 CH2           1 RES     
    3710 CH2         20.4737    35.1860   -39.2169 CH2           1 RES     
    3711 CH2         19.2702    35.0964   -38.2603 CH2           1 RES     
    3712 CH2         19.7383    34.5625   -36.8938 CH2           1 RES     
    3713 CH2         18.5348    34.4729   -35.9372 CH2           1 RES     
    3714 CH2         19.0030    33.9390   -34.5707 CH2           1 RES     
    3715 CH2         17.7995    33.8493   -33.6140 CH2           1 RES     
    3716 CH2         18.2676    33.3155   -32.2475 CH2           1 RES     
    3717 CH2         17.0641    33.2258   -31.2909 CH2           1 RES     
    3718 CH2         17.5323    32.6919   -29.9244 CH2           1 RES     
    3719 CH3         16.3835    32.6064   -29.0112 CH3           1 RES     
    3720 CH2         25.1133    36.8800   -49.2780 CH2           1 RES     
    3721 OE          26.4053    36.5770   -49.8972 OE            1 RES     
    3722 C           27.1331    36.1239   -48.6664 C             1 RES     
    3723 O           28.3034    35.7459   -48.6486 O             1 RES     
    3724 CH2         26.1128    36.0626   -47.7022 CH2           1 RES     
    3725 CH2         26.8468    35.4662   -46.4867 CH2           1 RES     
    3726 CH2         25.8300    35.1609   -45.3711 CH2           1 RES     
    3727 CH2         26.5640    34.5646   -44.1557 CH2           1 RES     
    3728 CH2         25.5472    34.2593   -43.0401 CH2           1 RES     
    3729 CH2         26.2812    33.6630   -41.8247 CH2           1 RES     
    3730 CH2         25.2644    33.3577   -40.7091 CH2           1 RES     
    3731 CH2         25.9984    32.7614   -39.4937 CH2           1 RES     
    3732 CH2         24.9816    32.4561   -38.3781 CH2           1 RES     
    3733 CH2         25.7156    31.8598   -37.1627 CH2           1 RES     
    3734 CH2         24.6988    31.5545   -36.0471 CH2           1 RES     
    3735 CH2         25.4328    30.9582   -34.8317 CH2           1 RES     
    3736 CH2         24.4160    30.6529   -33.7161 CH2           1 RES     
    3737 CH2         25.1500    30.0566   -32.5006 CH2           1 RES     
    3738 CH2         24.1332    29.7513   -31.3850 CH2           1 RES     
    3739 CH2         24.8672    29.1550   -30.1696 CH2           1 RES     
    3740 CH3         23.8966    28.8636   -29.1047 CH3           1 RES     
    3741 CH3         28.0926    32.8634   -56.7654 CH3           1 RES     
    3742 CH3         29.1053    34.0117   -58.5512 CH3           1 RES     
    3743 CH3         26.9924    34.3057   -58.0694 CH3           1 RES     
    3744 NL          28.1901    34.0384   -57.5746 NL            1 RES     
    3745 CH2         28.4110    35.1276   -56.7359 CH2           1 RES     
    3746 CH2         29.8060    34.7861   -56.1801 CH2           1 RES     
    3747 OA          30.1868    36.5725   -52.7280 OA            1 RES     
    3748 P           29.7385    35.4473   -53.7735 P             1 RES     
    3749 OM          30.4483    34.0866   -53.3212 OM            1 RES     
    3750 OM          28.1393    35.4029   -53.7477 OM            1 RES     
    3751 OA          30.2387    35.8501   -55.2389 OA            1 RES     
    3752 CH2         29.7068    36.1664   -51.3827 CH2           1 RES     
    3753 CH1         30.1208    37.2282   -50.3470 CH1           1 RES     
    3754 OE          28.9191    37.7827   -49.7070 OE            1 RES     
    3755 C           29.3487    37.3426   -48.3389 C             1 RES     
    3756 O           30.3931    36.7397   -48.0969 O             1 RES     
    3757 CH2         28.2141    37.6061   -47.5529 CH2           1 RES     
    3758 CH2         28.6203    37.0237   -46.1864 CH2           1 RES     
    3759 CH2         27.4143    37.0678   -45.2298 CH2           1 RES     
    3760 CH2         27.8205    36.4854   -43.8632 CH2           1 RES     
    3761 CH2         26.6145    36.5294   -42.9066 CH2           1 RES     
    3762 CH2         27.0207    35.9470   -41.5401 CH2           1 RES     
    3763 CH2         25.8147    35.9910   -40.5835 CH2           1 RES     
    3764 CH2         26.2209    35.4087   -39.2169 CH2           1 RES     
    3765 CH2         25.0149    35.4527   -38.2603 CH2           1 RES     
    3766 CH2         25.4211    34.8703   -36.8938 CH2           1 RES     
    3767 CH2         24.2151    34.9143   -35.9372 CH2           1 RES     
    3768 CH2         24.6213    34.3319   -34.5707 CH2           1 RES     
    3769 CH2         23.4153    34.3760   -33.6140 CH2           1 RES     
    3770 CH2         23.8215    33.7936   -32.2475 CH2           1 RES     
    3771 CH2         22.6155    33.8376   -31.2909 CH2           1 RES     
    3772 CH2         23.0217    33.2552   -29.9244 CH2           1 RES     
    3773 CH3         21.8705    33.2972   -29.0112 CH3           1 RES     
    3774 CH2         31.0195    36.5791   -49.2780 CH2           1 RES     
    3775 OE          32.2700    36.1351   -49.8972 OE            1 RES     
    3776 C           32.9432    35.6042   -48.6664 C             1 RES     
    3777 O           34.0646    35.0991   -48.6486 O             1 RES     
    3778 CH2         31.9224    35.6561   -47.7022 CH2           1 RES     
    3779 CH2         32.5859    34.9822   -46.4867 CH2           1 RES     
    3780 CH2         31.5416    34.7913   -45.3711 CH2           1 RES     
    3781 CH2         32.2051    34.1174   -44.1557 CH2           1 RES     
    3782 CH2         31.1608    33.9265   -43.0401 CH2           1 RES     
    3783 CH2         31.8243    33.2527   -41.8247 CH2           1 RES     
    3784 CH2         30.7800    33.0617   -40.7091 CH2           1 RES     
    3785 CH2         31.4436    32.3879   -39.4937 CH2           1 RES     
    3786 CH2         30.3993    32.1969   -38.3781 CH2           1 RES     
    3787 CH2         31.0628    31.5231   -37.1627 CH2           1 RES     
    3788 CH2         30.0185    31.3321   -36.0471 CH2           1 RES     
    3789 CH2         30.6820    30.6583   -34.8317 CH2           1 RES     
    3790 CH2         29.6377    30.4673   -33.7161 CH2           1 RES     
    3791 CH2         30.3012    29.7935   -32.5006 CH2           1 RES     
    3792 CH2         29.2569    29.6025   -31.3850 CH2           1 RES     
    3793 CH2         29.9204    28.9287   -30.1696 CH2           1 RES     
    3794 CH3         28.9236    28.7464   -29.1047 CH3           1 RES     
    3795 CH3          0.7065     5.4772   -56.7654 CH3           1 RES     
    3796 CH3          1.9855     6.3187   -58.5512 CH3           1 RES     
    3797 CH3          0.0244     7.1581   -58.0694 CH3           1 RES     
    3798 NL           1.1096     6.5853   -57.5746 NL            1 RES     
    3799 CH2          1.6092     7.5780   -56.7359 CH2           1 RES     
    3800 CH2          2.8653     6.8816   -56.1801 CH2           1 RES     
    3801 OA           3.7025     8.5050   -52.7280 OA            1 RES     
    3802 P            2.9740     7.5373   -53.7735 P             1 RES     
    3803 OM           3.3009     6.0378   -53.3212 OM            1 RES     
    3804 OM           1.4195     7.9150   -53.7477 OM            1 RES     
    3805 OA           3.5626     7.7943   -55.2389 OA            1 RES     
    3806 CH2          3.1326     8.2394   -51.3827 CH2           1 RES     
    3807 CH1          3.8113     9.1549   -50.3470 CH1           1 RES     
    3808 OE           2.7978    10.0059   -49.7070 OE            1 RES     
    3809 C            3.0965     9.4683   -48.3389 C             1 RES     
    3810 O            3.9456     8.6120   -48.0969 O             1 RES     
    3811 CH2          2.0712    10.0211   -47.5529 CH2           1 RES     
    3812 CH2          2.3099     9.3523   -46.1864 CH2           1 RES     
    3813 CH2          1.1579     9.7120   -45.2298 CH2           1 RES     
    3814 CH2          1.3967     9.0433   -43.8632 CH2           1 RES     
    3815 CH2          0.2447     9.4030   -42.9066 CH2           1 RES     
    3816 CH2          0.4834     8.7343   -41.5401 CH2           1 RES     
    3817 CH2         -0.6686     9.0940   -40.5835 CH2           1 RES     
    3818 CH2         -0.4298     8.4252   -39.2169 CH2           1 RES     
    3819 CH2         -1.5818     8.7849   -38.2603 CH2           1 RES     
    3820 CH2         -1.3430     8.1162   -36.8938 CH2           1 RES     
    3821 CH2         -2.4950     8.4759   -35.9372 CH2           1 RES     
    3822 CH2         -2.2563     7.8071   -34.5707 CH2           1 RES     
    3823 CH2         -3.4083     8.1669   -33.6140 CH2           1 RES     
    3824 CH2         -3.1695     7.4981   -32.2475 CH2           1 RES     
    3825 CH2         -4.3215     7.8578   -31.2909 CH2           1 RES     
    3826 CH2         -4.0828     7.1891   -29.9244 CH2           1 RES     
    3827 CH3         -5.1824     7.5324   -29.0112 CH3           1 RES     
    3828 CH2          4.5076     8.2923   -49.2780 CH2           1 RES     
    3829 OE           5.5973     7.5350   -49.8972 OE            1 RES     
    3830 C            6.1072     6.8457   -48.6664 C             1 RES     
    3831 O            7.0563     6.0635   -48.6486 O             1 RES     
    3832 CH2          5.1360     7.1643   -47.7022 CH2           1 RES     
    3833 CH2          5.5989     6.3396   -46.4867 CH2           1 RES     
    3834 CH2          4.5411     6.4301   -45.3711 CH2           1 RES     
    3835 CH2          5.0041     5.6055   -44.1557 CH2           1 RES     
    3836 CH2          3.9463     5.6959   -43.0401 CH2           1 RES     
    3837 CH2          4.4092     4.8713   -41.8247 CH2           1 RES     
    3838 CH2          3.3515     4.9617   -40.7091 CH2           1 RES     
    3839 CH2          3.8144     4.1371   -39.4937 CH2           1 RES     
    3840 CH2          2.7566     4.2275   -38.3781 CH2           1 RES     
    3841 CH2          3.2195     3.4029   -37.1627 CH2           1 RES     
    3842 CH2          2.1618     3.4934   -36.0471 CH2           1 RES     
    3843 CH2          2.6247     2.6687   -34.8317 CH2           1 RES     
    3844 CH2          1.5669     2.7592   -33.7161 CH2           1 RES     
    3845 CH2          2.0298     1.9345   -32.5006 CH2           1 RES     
    3846 CH2          0.9721     2.0250   -31.3850 CH2           1 RES     
    3847 CH2          1.4350     1.2003   -30.1696 CH2           1 RES     
    3848 CH3          0.4253     1.2867   -29.1047 CH3           1 RES     
    3849 CH3         33.5699    38.3406   -56.7654 CH3           1 RES     
    3850 CH3         34.8323    39.2067   -58.5512 CH3           1 RES     
    3851 CH3         32.8553    40.0080   -58.0694 CH3           1 RES     
    3852 NL          33.9514    39.4562   -57.5746 NL            1 RES     
    3853 CH2         34.4317    40.4585   -56.7359 CH2           1 RES     
    3854 CH2         35.7010    39.7865   -56.1801 CH2           1 RES     
    3855 OA          36.5066    41.4259   -52.7280 OA            1 RES     
    3856 P           35.7970    40.4443   -53.7735 P             1 RES     
    3857 OM          36.1529    38.9514   -53.3212 OM            1 RES     
    3858 OM          34.2354    40.7918   -53.7477 OM            1 RES     
    3859 OA          36.3805    40.7126   -55.2389 OA            1 RES     
    3860 CH2         35.9419    41.1493   -51.3827 CH2           1 RES     
    3861 CH1         36.6028    42.0778   -50.3470 CH1           1 RES     
    3862 OE          35.5730    42.9090   -49.7070 OE            1 RES     
    3863 C           35.8820    42.3773   -48.3389 C             1 RES     
    3864 O           36.7476    41.5376   -48.0969 O             1 RES     
    3865 CH2         34.8461    42.9100   -47.5529 CH2           1 RES     
    3866 CH2         35.0978    42.2460   -46.1864 CH2           1 RES     
    3867 CH2         33.9391    42.5833   -45.2298 CH2           1 RES     
    3868 CH2         34.1907    41.9194   -43.8632 CH2           1 RES     
    3869 CH2         33.0320    42.2567   -42.9066 CH2           1 RES     
    3870 CH2         33.2837    41.5927   -41.5401 CH2           1 RES     
    3871 CH2         32.1249    41.9300   -40.5835 CH2           1 RES     
    3872 CH2         32.3766    41.2660   -39.2169 CH2           1 RES     
    3873 CH2         31.2178    41.6033   -38.2603 CH2           1 RES     
    3874 CH2         31.4695    40.9393   -36.8938 CH2           1 RES     
    3875 CH2         30.3108    41.2766   -35.9372 CH2           1 RES     
    3876 CH2         30.5624    40.6126   -34.5707 CH2           1 RES     
    3877 CH2         29.4037    40.9499   -33.6140 CH2           1 RES     
    3878 CH2         29.6554    40.2859   -32.2475 CH2           1 RES     
    3879 CH2         28.4966    40.6232   -31.2909 CH2           1 RES     
    3880 CH2         28.7483    39.9592   -29.9244 CH2           1 RES     
    3881 CH3         27.6422    40.2812   -29.0112 CH3           1 RES     
    3882 CH2         37.3157    41.2289   -49.2780 CH2           1 RES     
    3883 OE          38.4198    40.4928   -49.8972 OE            1 RES     
    3884 C           38.9430    39.8136   -48.6664 C             1 RES     
    3885 O           39.9071    39.0499   -48.6486 O             1 RES     
    3886 CH2         37.9658    40.1132   -47.7022 CH2           1 RES     
    3887 CH2         38.4446    39.2977   -46.4867 CH2           1 RES     
    3888 CH2         37.3853    39.3676   -45.3711 CH2           1 RES     
    3889 CH2         37.8641    38.5521   -44.1557 CH2           1 RES     
    3890 CH2         36.8048    38.6221   -43.0401 CH2           1 RES     
    3891 CH2         37.2836    37.8065   -41.8247 CH2           1 RES     
    3892 CH2         36.2243    37.8765   -40.7091 CH2           1 RES     
    3893 CH2         36.7031    37.0610   -39.4937 CH2           1 RES     
    3894 CH2         35.6438    37.1309   -38.3781 CH2           1 RES     
    3895 CH2         36.1226    36.3154   -37.1627 CH2           1 RES     
    3896 CH2         35.0633    36.3853   -36.0471 CH2           1 RES     
    3897 CH2         35.5421    35.5698   -34.8317 CH2           1 RES     
    3898 CH2         34.4828    35.6397   -33.7161 CH2           1 RES     
    3899 CH2         34.9617    34.8242   -32.5006 CH2           1 RES     
    3900 CH2         33.9023    34.8941   -31.3850 CH2           1 RES     
    3901 CH2         34.3812    34.0786   -30.1696 CH2           1 RES     
    3902 CH3         33.3700    34.1454   -29.1047 CH3           1 RES     
    3903 CH3          0.7065     0.0000   -56.7654 CH3           1 RES     
    3904 CH3          2.0407     0.7510   -58.5512 CH3           1 RES     
    3905 CH3          0.1424     1.7241   -58.0694 CH3           1 RES     
    3906 NL           1.1853     1.0775   -57.5746 NL            1 RES     
    3907 CH2          1.7525     2.0332   -56.7359 CH2           1 RES     
    3908 CH2          2.9573     1.2515   -56.1801 CH2           1 RES     
    3909 OA           3.9049     2.8131   -52.7280 OA            1 RES     
    3910 P            3.1112     1.8982   -53.7735 P             1 RES     
    3911 OM           3.3335     0.3796   -53.3212 OM            1 RES     
    3912 OM           1.5865     2.3826   -53.7477 OM            1 RES     
    3913 OA           3.7162     2.1138   -55.2389 OA            1 RES     
    3914 CH2          3.3180     2.5876   -51.3827 CH2           1 RES     
    3915 CH1          4.0585     3.4540   -50.3470 CH1           1 RES     
    3916 OE           3.1063     4.3731   -49.7070 OE            1 RES     
    3917 C            3.3670     3.8161   -48.3389 C             1 RES     
    3918 O            4.1548     2.9030   -48.0969 O             1 RES     
    3919 CH2          2.3824     4.4385   -47.5529 CH2           1 RES     
    3920 CH2          2.5743     3.7548   -46.1864 CH2           1 RES     
    3921 CH2          1.4500     4.1934   -45.2298 CH2           1 RES     
    3922 CH2          1.6419     3.5097   -43.8632 CH2           1 RES     
    3923 CH2          0.5175     3.9483   -42.9066 CH2           1 RES     
    3924 CH2          0.7094     3.2647   -41.5401 CH2           1 RES     
    3925 CH2         -0.4149     3.7032   -40.5835 CH2           1 RES     
    3926 CH2         -0.2230     3.0196   -39.2169 CH2           1 RES     
    3927 CH2         -1.3473     3.4582   -38.2603 CH2           1 RES     
    3928 CH2         -1.1555     2.7745   -36.8938 CH2           1 RES     
    3929 CH2         -2.2798     3.2131   -35.9372 CH2           1 RES     
    3930 CH2         -2.0879     2.5294   -34.5707 CH2           1 RES     
    3931 CH2         -3.2122     2.9680   -33.6140 CH2           1 RES     
    3932 CH2         -3.0203     2.2843   -32.2475 CH2           1 RES     
    3933 CH2         -4.1447     2.7229   -31.2909 CH2           1 RES     
    3934 CH2         -3.9528     2.0393   -29.9244 CH2           1 RES     
    3935 CH3         -5.0260     2.4579   -29.0112 CH3           1 RES     
    3936 CH2          4.6934     2.5452   -49.2780 CH2           1 RES     
    3937 OE           5.7280     1.7143   -49.8972 OE            1 RES     
    3938 C            6.1890     0.9914   -48.6664 C             1 RES     
    3939 O            7.0816     0.1453   -48.6486 O             1 RES     
    3940 CH2          5.2421     1.3764   -47.7022 CH2           1 RES     
    3941 CH2          5.6469     0.5217   -46.4867 CH2           1 RES     
    3942 CH2          4.5979     0.6852   -45.3711 CH2           1 RES     
    3943 CH2          5.0026    -0.1696   -44.1557 CH2           1 RES     
    3944 CH2          3.9537    -0.0061   -43.0401 CH2           1 RES     
    3945 CH2          4.3584    -0.8608   -41.8247 CH2           1 RES     
    3946 CH2          3.3094    -0.6973   -40.7091 CH2           1 RES     
    3947 CH2          3.7142    -1.5521   -39.4937 CH2           1 RES     
    3948 CH2          2.6652    -1.3886   -38.3781 CH2           1 RES     
    3949 CH2          3.0699    -2.2433   -37.1627 CH2           1 RES     
    3950 CH2          2.0210    -2.0798   -36.0471 CH2           1 RES     
    3951 CH2          2.4257    -2.9346   -34.8317 CH2           1 RES     
    3952 CH2          1.3767    -2.7711   -33.7161 CH2           1 RES     
    3953 CH2          1.7814    -3.6258   -32.5006 CH2           1 RES     
    3954 CH2          0.7325    -3.4623   -31.3850 CH2           1 RES     
    3955 CH2          1.1372    -4.3171   -30.1696 CH2           1 RES     
    3956 CH3          0.1359    -4.1610   -29.1047 CH3           1 RES     
    3957 CH3         22.6154    38.3406   -56.7654 CH3           1 RES     
    3958 CH3         23.9769    39.0409   -58.5512 CH3           1 RES     
    3959 CH3         22.1164    40.0846   -58.0694 CH3           1 RES     
    3960 NL          23.1343    39.3993   -57.5746 NL            1 RES     
    3961 CH2         23.7369    40.3331   -56.7359 CH2           1 RES     
    3962 CH2         24.9116    39.5068   -56.1801 CH2           1 RES     
    3963 OA          25.9172    41.0317   -52.7280 OA            1 RES     
    3964 P           25.0896    40.1472   -53.7735 P             1 RES     
    3965 OM          25.2548    38.6214   -53.3212 OM            1 RES     
    3966 OM          23.5842    40.6885   -53.7477 OM            1 RES     
    3967 OA          25.7023    40.3400   -55.2389 OA            1 RES     
    3968 CH2         25.3222    40.8283   -51.3827 CH2           1 RES     
    3969 CH1         26.0946    41.6663   -50.3470 CH1           1 RES     
    3970 OE          25.1776    42.6205   -49.7070 OE            1 RES     
    3971 C           25.4173    42.0541   -48.3389 C             1 RES     
    3972 O           26.1703    41.1121   -48.0969 O             1 RES     
    3973 CH2         24.4567    42.7130   -47.5529 CH2           1 RES     
    3974 CH2         24.6228    42.0226   -46.1864 CH2           1 RES     
    3975 CH2         23.5157    42.5031   -45.2298 CH2           1 RES     
    3976 CH2         23.6818    41.8127   -43.8632 CH2           1 RES     
    3977 CH2         22.5748    42.2932   -42.9066 CH2           1 RES     
    3978 CH2         22.7408    41.6028   -41.5401 CH2           1 RES     
    3979 CH2         21.6338    42.0833   -40.5835 CH2           1 RES     
    3980 CH2         21.7999    41.3929   -39.2169 CH2           1 RES     
    3981 CH2         20.6928    41.8734   -38.2603 CH2           1 RES     
    3982 CH2         20.8589    41.1830   -36.8938 CH2           1 RES     
    3983 CH2         19.7518    41.6635   -35.9372 CH2           1 RES     
    3984 CH2         19.9179    40.9731   -34.5707 CH2           1 RES     
    3985 CH2         18.8108    41.4536   -33.6140 CH2           1 RES     
    3986 CH2         18.9769    40.7632   -32.2475 CH2           1 RES     
    3987 CH2         17.8699    41.2437   -31.2909 CH2           1 RES     
    3988 CH2         18.0359    40.5533   -29.9244 CH2           1 RES     
    3989 CH3         16.9792    41.0119   -29.0112 CH3           1 RES     
    3990 CH2         26.6950    40.7344   -49.2780 CH2           1 RES     
    3991 OE          27.6977    39.8652   -49.8972 OE            1 RES     
    3992 C           28.1313    39.1255   -48.6664 C             1 RES     
    3993 O           28.9915    38.2465   -48.6486 O             1 RES     
    3994 CH2         27.1995    39.5458   -47.7022 CH2           1 RES     
    3995 CH2         27.5719    38.6765   -46.4867 CH2           1 RES     
    3996 CH2         26.5298    38.8792   -45.3711 CH2           1 RES     
    3997 CH2         26.9021    38.0099   -44.1557 CH2           1 RES     
    3998 CH2         25.8600    38.2126   -43.0401 CH2           1 RES     
    3999 CH2         26.2324    37.3433   -41.8247 CH2           1 RES     
    4000 CH2         25.1903    37.5460   -40.7091 CH2           1 RES     
    4001 CH2         25.5627    36.6767   -39.4937 CH2           1 RES     
    4002 CH2         24.5206    36.8795   -38.3781 CH2           1 RES     
    4003 CH2         24.8930    36.0101   -37.1627 CH2           1 RES     
    4004 CH2         23.8509    36.2129   -36.0471 CH2           1 RES     
    4005 CH2         24.2232    35.3436   -34.8317 CH2           1 RES     
    4006 CH2         23.1811    35.5463   -33.7161 CH2           1 RES     
    4007 CH2         23.5535    34.6770   -32.5006 CH2           1 RES     
    4008 CH2         22.5114    34.8797   -31.3850 CH2           1 RES     
    4009 CH2         22.8838    34.0104   -30.1696 CH2           1 RES     
    4010 CH3         21.8891    34.2039   -29.1047 CH3           1 RES     
    4011 CH3         17.1382    16.4317   -56.7654 CH3           1 RES     
    4012 CH3         18.4148    17.2769   -58.5512 CH3           1 RES     
    4013 CH3         16.4512    18.1106   -58.0694 CH3           1 RES     
    4014 NL          17.5381    17.5409   -57.5746 NL            1 RES     
    4015 CH2         18.0349    18.5350   -56.7359 CH2           1 RES     
    4016 CH2         19.2929    17.8422   -56.1801 CH2           1 RES     
    4017 OA          20.1255    19.4680   -52.7280 OA            1 RES     
    4018 P           19.3998    18.4983   -53.7735 P             1 RES     
    4019 OM          19.7310    16.9997   -53.3212 OM            1 RES     
    4020 OM          17.8441    18.8715   -53.7477 OM            1 RES     
    4021 OA          19.9876    18.7570   -55.2389 OA            1 RES     
    4022 CH2         19.5563    19.2008   -51.3827 CH2           1 RES     
    4023 CH1         20.2324    20.1183   -50.3470 CH1           1 RES     
    4024 OE          19.2165    20.9664   -49.7070 OE            1 RES     
    4025 C           19.5167    20.4296   -48.3389 C             1 RES     
    4026 O           20.3683    19.5757   -48.0969 O             1 RES     
    4027 CH2         18.4898    20.9794   -47.5529 CH2           1 RES     
    4028 CH2         18.7304    20.3114   -46.1864 CH2           1 RES     
    4029 CH2         17.5774    20.6678   -45.2298 CH2           1 RES     
    4030 CH2         17.8181    19.9997   -43.8632 CH2           1 RES     
    4031 CH2         16.6651    20.3561   -42.9066 CH2           1 RES     
    4032 CH2         16.9058    19.6880   -41.5401 CH2           1 RES     
    4033 CH2         15.7527    20.0444   -40.5835 CH2           1 RES     
    4034 CH2         15.9934    19.3764   -39.2169 CH2           1 RES     
    4035 CH2         14.8404    19.7328   -38.2603 CH2           1 RES     
    4036 CH2         15.0811    19.0647   -36.8938 CH2           1 RES     
    4037 CH2         13.9280    19.4211   -35.9372 CH2           1 RES     
    4038 CH2         14.1687    18.7531   -34.5707 CH2           1 RES     
    4039 CH2         13.0157    19.1095   -33.6140 CH2           1 RES     
    4040 CH2         13.2564    18.4414   -32.2475 CH2           1 RES     
    4041 CH2         12.1034    18.7978   -31.2909 CH2           1 RES     
    4042 CH2         12.3440    18.1298   -29.9244 CH2           1 RES     
    4043 CH3         11.2434    18.4700   -29.0112 CH3           1 RES     
    4044 CH2         20.9312    19.2577   -49.2780 CH2           1 RES     
    4045 OE          22.0231    18.5034   -49.8972 OE            1 RES     
    4046 C           22.5350    17.8157   -48.6664 C             1 RES     
    4047 O           23.4862    17.0362   -48.6486 O             1 RES     
    4048 CH2         21.5628    18.1315   -47.7022 CH2           1 RES     
    4049 CH2         22.0281    17.3081   -46.4867 CH2           1 RES     
    4050 CH2         20.9701    17.3956   -45.3711 CH2           1 RES     
    4051 CH2         21.4353    16.5722   -44.1557 CH2           1 RES     
    4052 CH2         20.3773    16.6597   -43.0401 CH2           1 RES     
    4053 CH2         20.8426    15.8364   -41.8247 CH2           1 RES     
    4054 CH2         19.7846    15.9238   -40.7091 CH2           1 RES     
    4055 CH2         20.2499    15.1005   -39.4937 CH2           1 RES     
    4056 CH2         19.1919    15.1879   -38.3781 CH2           1 RES     
    4057 CH2         19.6572    14.3646   -37.1627 CH2           1 RES     
    4058 CH2         18.5991    14.4520   -36.0471 CH2           1 RES     
    4059 CH2         19.0644    13.6287   -34.8317 CH2           1 RES     
    4060 CH2         18.0064    13.7161   -33.7161 CH2           1 RES     
    4061 CH2         18.4717    12.8928   -32.5006 CH2           1 RES     
    4062 CH2         17.4137    12.9802   -31.3850 CH2           1 RES     
    4063 CH2         17.8790    12.1569   -30.1696 CH2           1 RES     
    4064 CH3         16.8690    12.2403   -29.1047 CH3           1 RES     
    4065 CH3         26.8435    10.1313   -35.6031 CH3           1 RES     
    4066 CH2         32.8132    10.7584   -52.0944 CH2           1 RES     
    4067 CH2         32.2869    11.5939   -50.9126 CH2           1 RES     
    4068 CH2         31.9582    10.6628   -49.7308 CH2           1 RES     
    4069 CH2         31.4319    11.4982   -48.5490 CH2           1 RES     
    4070 CH2         31.1033    10.5671   -47.3672 CH2           1 RES     
    4071 CH2         30.5770    11.4026   -46.1854 CH2           1 RES     
    4072 CH2         30.2483    10.4715   -45.0037 CH2           1 RES     
    4073 CH2         29.7221    11.3070   -43.8219 CH2           1 RES     
    4074 CH2         29.3934    10.3759   -42.6401 CH2           1 RES     
    4075 CH2         28.8671    11.2114   -41.4583 CH2           1 RES     
    4076 CH2         28.5385    10.2802   -40.2765 CH2           1 RES     
    4077 CH2         28.0122    11.1157   -39.0947 CH2           1 RES     
    4078 CH2         27.6835    10.1846   -37.9129 CH2           1 RES     
    4079 CH2         27.1573    11.0201   -36.7312 CH2           1 RES     
    4080 O           32.9673    12.8366   -53.2024 O             1 RES     
    4081 C           33.1127    11.6152   -53.1993 C             1 RES     
    4082 OA          33.5699    10.9545   -54.2654 OA            1 RES     
    4083 H           33.7395    11.5943   -54.9607 H             1 RES     
    4084 CH3         32.3314    31.9572   -35.6031 CH3           1 RES     
    4085 CH2         38.2929    32.6580   -52.0944 CH2           1 RES     
    4086 CH2         37.7563    33.4869   -50.9126 CH2           1 RES     
    4087 CH2         37.4392    32.5518   -49.7308 CH2           1 RES     
    4088 CH2         36.9026    33.3807   -48.5490 CH2           1 RES     
    4089 CH2         36.5855    32.4456   -47.3672 CH2           1 RES     
    4090 CH2         36.0489    33.2745   -46.1854 CH2           1 RES     
    4091 CH2         35.7318    32.3394   -45.0037 CH2           1 RES     
    4092 CH2         35.1952    33.1683   -43.8219 CH2           1 RES     
    4093 CH2         34.8781    32.2332   -42.6401 CH2           1 RES     
    4094 CH2         34.3415    33.0622   -41.4583 CH2           1 RES     
    4095 CH2         34.0244    32.1271   -40.2765 CH2           1 RES     
    4096 CH2         33.4879    32.9560   -39.0947 CH2           1 RES     
    4097 CH2         33.1707    32.0209   -37.9129 CH2           1 RES     
    4098 CH2         32.6342    32.8498   -36.7312 CH2           1 RES     
    4099 O           38.4213    34.7379   -53.2024 O             1 RES     
    4100 C           38.5818    33.5184   -53.1993 C             1 RES     
    4101 OA          39.0471    32.8634   -54.2654 OA            1 RES     
    4102 H           39.2088    33.5053   -54.9607 H             1 RES     
    4103 CH3         32.3589    39.4310   -35.6031 CH3           1 RES     
    4104 CH2         38.2657    38.3639   -52.0944 CH2           1 RES     
    4105 CH2         37.9941    39.3132   -50.9126 CH2           1 RES     
    4106 CH2         37.4182    38.5112   -49.7308 CH2           1 RES     
    4107 CH2         37.1465    39.4605   -48.5490 CH2           1 RES     
    4108 CH2         36.5706    38.6584   -47.3672 CH2           1 RES     
    4109 CH2         36.2989    39.6077   -46.1854 CH2           1 RES     
    4110 CH2         35.7230    38.8056   -45.0037 CH2           1 RES     
    4111 CH2         35.4513    39.7549   -43.8219 CH2           1 RES     
    4112 CH2         34.8754    38.9529   -42.6401 CH2           1 RES     
    4113 CH2         34.6038    39.9022   -41.4583 CH2           1 RES     
    4114 CH2         34.0279    39.1001   -40.2765 CH2           1 RES     
    4115 CH2         33.7562    40.0494   -39.0947 CH2           1 RES     
    4116 CH2         33.1803    39.2473   -37.9129 CH2           1 RES     
    4117 CH2         32.9086    40.1966   -36.7312 CH2           1 RES     
    4118 O           38.9948    40.3161   -53.2024 O             1 RES     
    4119 C           38.7929    39.1028   -53.1993 C             1 RES     
    4120 OA          39.0471    38.3406   -54.2654 OA            1 RES     
    4121 H           39.3889    38.9075   -54.9607 H             1 RES     
    4122 CH3         10.4098     4.6710   -35.6031 CH3           1 RES     
    4123 CH2         16.3810     5.2831   -52.0944 CH2           1 RES     
    4124 CH2         15.8568     6.1199   -50.9126 CH2           1 RES     
    4125 CH2         15.5258     5.1896   -49.7308 CH2           1 RES     
    4126 CH2         15.0016     6.0264   -48.5490 CH2           1 RES     
    4127 CH2         14.6706     5.0961   -47.3672 CH2           1 RES     
    4128 CH2         14.1465     5.9329   -46.1854 CH2           1 RES     
    4129 CH2         13.8155     5.0027   -45.0037 CH2           1 RES     
    4130 CH2         13.2913     5.8395   -43.8219 CH2           1 RES     
    4131 CH2         12.9603     4.9092   -42.6401 CH2           1 RES     
    4132 CH2         12.4361     5.7460   -41.4583 CH2           1 RES     
    4133 CH2         12.1051     4.8157   -40.2765 CH2           1 RES     
    4134 CH2         11.5809     5.6525   -39.0947 CH2           1 RES     
    4135 CH2         11.2499     4.7222   -37.9129 CH2           1 RES     
    4136 CH2         10.7258     5.5590   -36.7312 CH2           1 RES     
    4137 O           16.5404     7.3609   -53.2024 O             1 RES     
    4138 C           16.6827     6.1391   -53.1993 C             1 RES     
    4139 OA          17.1382     5.4772   -54.2654 OA            1 RES     
    4140 H           17.3095     6.1166   -54.9607 H             1 RES     
    4141 CH3         -5.9650    23.0972   -35.6031 CH3           1 RES     
    4142 CH2         -0.0744    21.9437   -52.0944 CH2           1 RES     
    4143 CH2         -0.3321    22.8969   -50.9126 CH2           1 RES     
    4144 CH2         -0.9197    22.1033   -49.7308 CH2           1 RES     
    4145 CH2         -1.1775    23.0565   -48.5490 CH2           1 RES     
    4146 CH2         -1.7651    22.2630   -47.3672 CH2           1 RES     
    4147 CH2         -2.0228    23.2161   -46.1854 CH2           1 RES     
    4148 CH2         -2.6104    22.4226   -45.0037 CH2           1 RES     
    4149 CH2         -2.8681    23.3758   -43.8219 CH2           1 RES     
    4150 CH2         -3.4557    22.5822   -42.6401 CH2           1 RES     
    4151 CH2         -3.7135    23.5354   -41.4583 CH2           1 RES     
    4152 CH2         -4.3010    22.7419   -40.2765 CH2           1 RES     
    4153 CH2         -4.5588    23.6950   -39.0947 CH2           1 RES     
    4154 CH2         -5.1464    22.9015   -37.9129 CH2           1 RES     
    4155 CH2         -5.4041    23.8547   -36.7312 CH2           1 RES     
    4156 O            0.6832    23.8850   -53.2024 O             1 RES     
    4157 C            0.4636    22.6748   -53.1993 C             1 RES     
    4158 OA           0.7065    21.9089   -54.2654 OA            1 RES     
    4159 H            1.0566    22.4707   -54.9607 H             1 RES     
    4160 CH3          4.8957    26.9953   -35.6031 CH3           1 RES     
    4161 CH2         10.8933    27.2389   -52.0944 CH2           1 RES     
    4162 CH2         10.4216    28.1064   -50.9126 CH2           1 RES     
    4163 CH2         10.0339    27.1982   -49.7308 CH2           1 RES     
    4164 CH2          9.5622    28.0657   -48.5490 CH2           1 RES     
    4165 CH2          9.1746    27.1575   -47.3672 CH2           1 RES     
    4166 CH2          8.7029    28.0250   -46.1854 CH2           1 RES     
    4167 CH2          8.3153    27.1168   -45.0037 CH2           1 RES     
    4168 CH2          7.8436    27.9843   -43.8219 CH2           1 RES     
    4169 CH2          7.4560    27.0761   -42.6401 CH2           1 RES     
    4170 CH2          6.9843    27.9436   -41.4583 CH2           1 RES     
    4171 CH2          6.5967    27.0354   -40.2765 CH2           1 RES     
    4172 CH2          6.1250    27.9029   -39.0947 CH2           1 RES     
    4173 CH2          5.7374    26.9947   -37.9129 CH2           1 RES     
    4174 CH2          5.2657    27.8622   -36.7312 CH2           1 RES     
    4175 O           11.1801    29.3030   -53.2024 O             1 RES     
    4176 C           11.2471    28.0748   -53.1993 C             1 RES     
    4177 OA          11.6610    27.3861   -54.2654 OA            1 RES     
    4178 H           11.8712    28.0138   -54.9607 H             1 RES     
    4179 CH3         32.2913    27.9162   -35.6031 CH3           1 RES     
    4180 CH2         38.2665    27.3444   -52.0944 CH2           1 RES     
    4181 CH2         37.9168    28.2678   -50.9126 CH2           1 RES     
    4182 CH2         37.4096    27.4206   -49.7308 CH2           1 RES     
    4183 CH2         37.0599    28.3440   -48.5490 CH2           1 RES     
    4184 CH2         36.5527    27.4967   -47.3672 CH2           1 RES     
    4185 CH2         36.2030    28.4202   -46.1854 CH2           1 RES     
    4186 CH2         35.6958    27.5729   -45.0037 CH2           1 RES     
    4187 CH2         35.3461    28.4963   -43.8219 CH2           1 RES     
    4188 CH2         34.8390    27.6491   -42.6401 CH2           1 RES     
    4189 CH2         34.4892    28.5725   -41.4583 CH2           1 RES     
    4190 CH2         33.9821    27.7253   -40.2765 CH2           1 RES     
    4191 CH2         33.6323    28.6487   -39.0947 CH2           1 RES     
    4192 CH2         33.1252    27.8015   -37.9129 CH2           1 RES     
    4193 CH2         32.7755    28.7249   -36.7312 CH2           1 RES     
    4194 O           38.8306    29.3505   -53.2024 O             1 RES     
    4195 C           38.7304    28.1245   -53.1993 C             1 RES     
    4196 OA          39.0471    27.3861   -54.2654 OA            1 RES     
    4197 H           39.3405    27.9795   -54.9607 H             1 RES     
    4198 CH3         15.9925    -1.4347   -35.6031 CH3           1 RES     
    4199 CH2         21.8798    -0.2644   -52.0944 CH2           1 RES     
    4200 CH2         21.2793     0.5194   -50.9126 CH2           1 RES     
    4201 CH2         21.0372    -0.4378   -49.7308 CH2           1 RES     
    4202 CH2         20.4367     0.3460   -48.5490 CH2           1 RES     
    4203 CH2         20.1946    -0.6112   -47.3672 CH2           1 RES     
    4204 CH2         19.5941     0.1726   -46.1854 CH2           1 RES     
    4205 CH2         19.3520    -0.7846   -45.0037 CH2           1 RES     
    4206 CH2         18.7515    -0.0008   -43.8219 CH2           1 RES     
    4207 CH2         18.5094    -0.9580   -42.6401 CH2           1 RES     
    4208 CH2         17.9089    -0.1742   -41.4583 CH2           1 RES     
    4209 CH2         17.6667    -1.1314   -40.2765 CH2           1 RES     
    4210 CH2         17.0663    -0.3476   -39.0947 CH2           1 RES     
    4211 CH2         16.8241    -1.3048   -37.9129 CH2           1 RES     
    4212 CH2         16.2237    -0.5210   -36.7312 CH2           1 RES     
    4213 O           21.8433     1.8191   -53.2024 O             1 RES     
    4214 C           22.0998     0.6162   -53.1993 C             1 RES     
    4215 OA          22.6154     0.0000   -54.2654 OA            1 RES     
    4216 H           22.7259     0.6527   -54.9607 H             1 RES     
    4217 CH3          5.0687    36.7712   -35.6031 CH3           1 RES     
    4218 CH2         10.9309    38.0612   -52.0944 CH2           1 RES     
    4219 CH2         10.3146    38.8327   -50.9126 CH2           1 RES     
    4220 CH2         10.0920    37.8707   -49.7308 CH2           1 RES     
    4221 CH2          9.4757    38.6422   -48.5490 CH2           1 RES     
    4222 CH2          9.2531    37.6802   -47.3672 CH2           1 RES     
    4223 CH2          8.6368    38.4516   -46.1854 CH2           1 RES     
    4224 CH2          8.4142    37.4896   -45.0037 CH2           1 RES     
    4225 CH2          7.7979    38.2611   -43.8219 CH2           1 RES     
    4226 CH2          7.5753    37.2991   -42.6401 CH2           1 RES     
    4227 CH2          6.9590    38.0706   -41.4583 CH2           1 RES     
    4228 CH2          6.7364    37.1086   -40.2765 CH2           1 RES     
    4229 CH2          6.1201    37.8800   -39.0947 CH2           1 RES     
    4230 CH2          5.8975    36.9180   -37.9129 CH2           1 RES     
    4231 CH2          5.2812    37.6895   -36.7312 CH2           1 RES     
    4232 O           10.8519    40.1436   -53.2024 O             1 RES     
    4233 C           11.1329    38.9461   -53.1993 C             1 RES     
    4234 OA          11.6610    38.3406   -54.2654 OA            1 RES     
    4235 H           11.7581    38.9954   -54.9607 H             1 RES     
    4236 CH3         26.7977    32.6205   -35.6031 CH3           1 RES     
    4237 CH2         32.7991    32.7330   -52.0944 CH2           1 RES     
    4238 CH2         32.3465    33.6105   -50.9126 CH2           1 RES     
    4239 CH2         31.9391    32.7110   -49.7308 CH2           1 RES     
    4240 CH2         31.4865    33.5886   -48.5490 CH2           1 RES     
    4241 CH2         31.0791    32.6891   -47.3672 CH2           1 RES     
    4242 CH2         30.6265    33.5667   -46.1854 CH2           1 RES     
    4243 CH2         30.2192    32.6672   -45.0037 CH2           1 RES     
    4244 CH2         29.7665    33.5448   -43.8219 CH2           1 RES     
    4245 CH2         29.3592    32.6453   -42.6401 CH2           1 RES     
    4246 CH2         28.9065    33.5229   -41.4583 CH2           1 RES     
    4247 CH2         28.4992    32.6234   -40.2765 CH2           1 RES     
    4248 CH2         28.0465    33.5010   -39.0947 CH2           1 RES     
    4249 CH2         27.6392    32.6015   -37.9129 CH2           1 RES     
    4250 CH2         27.1866    33.4791   -36.7312 CH2           1 RES     
    4251 O           33.1311    34.7902   -53.2024 O             1 RES     
    4252 C           33.1711    33.5609   -53.1993 C             1 RES     
    4253 OA          33.5699    32.8634   -54.2654 OA            1 RES     
    4254 H           33.7938    33.4863   -54.9607 H             1 RES     
    4255 CH3          4.9042    33.3809   -35.6031 CH3           1 RES     
    4256 CH2         10.8805    32.8201   -52.0944 CH2           1 RES     
    4257 CH2         10.5290    33.7429   -50.9126 CH2           1 RES     
    4258 CH2         10.0234    32.8947   -49.7308 CH2           1 RES     
    4259 CH2          9.6720    33.8175   -48.5490 CH2           1 RES     
    4260 CH2          9.1664    32.9693   -47.3672 CH2           1 RES     
    4261 CH2          8.8150    33.8921   -46.1854 CH2           1 RES     
    4262 CH2          8.3094    33.0439   -45.0037 CH2           1 RES     
    4263 CH2          7.9579    33.9667   -43.8219 CH2           1 RES     
    4264 CH2          7.4523    33.1185   -42.6401 CH2           1 RES     
    4265 CH2          7.1009    34.0413   -41.4583 CH2           1 RES     
    4266 CH2          6.5953    33.1931   -40.2765 CH2           1 RES     
    4267 CH2          6.2439    34.1159   -39.0947 CH2           1 RES     
    4268 CH2          5.7383    33.2677   -37.9129 CH2           1 RES     
    4269 CH2          5.3869    34.1905   -36.7312 CH2           1 RES     
    4270 O           11.4408    34.8273   -53.2024 O             1 RES     
    4271 C           11.3429    33.6012   -53.1993 C             1 RES     
    4272 OA          11.6610    32.8634   -54.2654 OA            1 RES     
    4273 H           11.9533    33.4573   -54.9607 H             1 RES     
    4274 CH3         21.3163     0.0478   -35.6031 CH3           1 RES     
    4275 CH2         27.3170    -0.0972   -52.0944 CH2           1 RES     
    4276 CH2         26.9024     0.7989   -50.9126 CH2           1 RES     
    4277 CH2         26.4569    -0.0822   -49.7308 CH2           1 RES     
    4278 CH2         26.0423     0.8139   -48.5490 CH2           1 RES     
    4279 CH2         25.5967    -0.0672   -47.3672 CH2           1 RES     
    4280 CH2         25.1822     0.8289   -46.1854 CH2           1 RES     
    4281 CH2         24.7366    -0.0523   -45.0037 CH2           1 RES     
    4282 CH2         24.3220     0.8439   -43.8219 CH2           1 RES     
    4283 CH2         23.8765    -0.0373   -42.6401 CH2           1 RES     
    4284 CH2         23.4619     0.8589   -41.4583 CH2           1 RES     
    4285 CH2         23.0163    -0.0223   -40.2765 CH2           1 RES     
    4286 CH2         22.6017     0.8739   -39.0947 CH2           1 RES     
    4287 CH2         22.1562    -0.0073   -37.9129 CH2           1 RES     
    4288 CH2         21.7416     0.8889   -36.7312 CH2           1 RES     
    4289 O           27.7369     1.9439   -53.2024 O             1 RES     
    4290 C           27.7242     0.7140   -53.1993 C             1 RES     
    4291 OA          28.0926     0.0000   -54.2654 OA            1 RES     
    4292 H           28.3431     0.6128   -54.9607 H             1 RES     
    4293 CH3         15.8695    26.7425   -35.6031 CH3           1 RES     
    4294 CH2         21.8537    27.2103   -52.0944 CH2           1 RES     
    4295 CH2         21.3499    28.0595   -50.9126 CH2           1 RES     
    4296 CH2         20.9966    27.1375   -49.7308 CH2           1 RES     
    4297 CH2         20.4927    27.9867   -48.5490 CH2           1 RES     
    4298 CH2         20.1394    27.0647   -47.3672 CH2           1 RES     
    4299 CH2         19.6356    27.9139   -46.1854 CH2           1 RES     
    4300 CH2         19.2822    26.9919   -45.0037 CH2           1 RES     
    4301 CH2         18.7784    27.8411   -43.8219 CH2           1 RES     
    4302 CH2         18.4250    26.9190   -42.6401 CH2           1 RES     
    4303 CH2         17.9212    27.7682   -41.4583 CH2           1 RES     
    4304 CH2         17.5678    26.8462   -40.2765 CH2           1 RES     
    4305 CH2         17.0640    27.6954   -39.0947 CH2           1 RES     
    4306 CH2         16.7107    26.7734   -37.9129 CH2           1 RES     
    4307 CH2         16.2068    27.6226   -36.7312 CH2           1 RES     
    4308 O           22.0632    29.2836   -53.2024 O             1 RES     
    4309 C           22.1760    28.0588   -53.1993 C             1 RES     
    4310 OA          22.6154    27.3861   -54.2654 OA            1 RES     
    4311 H           22.8021    28.0212   -54.9607 H             1 RES     
    4312 CH3          5.0151    15.1077   -35.6031 CH3           1 RES     
    4313 CH2         10.9210    16.1796   -52.0944 CH2           1 RES     
    4314 CH2         10.3337    16.9733   -50.9126 CH2           1 RES     
    4315 CH2         10.0756    16.0202   -49.7308 CH2           1 RES     
    4316 CH2          9.4884    16.8140   -48.5490 CH2           1 RES     
    4317 CH2          9.2303    15.8609   -47.3672 CH2           1 RES     
    4318 CH2          8.6430    16.6547   -46.1854 CH2           1 RES     
    4319 CH2          8.3849    15.7016   -45.0037 CH2           1 RES     
    4320 CH2          7.7976    16.4954   -43.8219 CH2           1 RES     
    4321 CH2          7.5395    15.5423   -42.6401 CH2           1 RES     
    4322 CH2          6.9522    16.3361   -41.4583 CH2           1 RES     
    4323 CH2          6.6941    15.3830   -40.2765 CH2           1 RES     
    4324 CH2          6.1068    16.1768   -39.0947 CH2           1 RES     
    4325 CH2          5.8487    15.2237   -37.9129 CH2           1 RES     
    4326 CH2          5.2614    16.0175   -36.7312 CH2           1 RES     
    4327 O           10.9193    18.2634   -53.2024 O             1 RES     
    4328 C           11.1557    17.0564   -53.1993 C             1 RES     
    4329 OA          11.6610    16.4317   -54.2654 OA            1 RES     
    4330 H           11.7823    17.0824   -54.9607 H             1 RES     
    4331 CH3         15.9635    17.7251   -35.6031 CH3           1 RES     
    4332 CH2         21.8351    16.4788   -52.0944 CH2           1 RES     
    4333 CH2         21.5925    17.4359   -50.9126 CH2           1 RES     
    4334 CH2         20.9924    16.6517   -49.7308 CH2           1 RES     
    4335 CH2         20.7498    17.6089   -48.5490 CH2           1 RES     
    4336 CH2         20.1497    16.8247   -47.3672 CH2           1 RES     
    4337 CH2         19.9071    17.7818   -46.1854 CH2           1 RES     
    4338 CH2         19.3070    16.9976   -45.0037 CH2           1 RES     
    4339 CH2         19.0644    17.9548   -43.8219 CH2           1 RES     
    4340 CH2         18.4643    17.1706   -42.6401 CH2           1 RES     
    4341 CH2         18.2217    18.1277   -41.4583 CH2           1 RES     
    4342 CH2         17.6216    17.3435   -40.2765 CH2           1 RES     
    4343 CH2         17.3790    18.3007   -39.0947 CH2           1 RES     
    4344 CH2         16.7789    17.5165   -37.9129 CH2           1 RES     
    4345 CH2         16.5363    18.4736   -36.7312 CH2           1 RES     
    4346 O           22.6233    18.4079   -53.2024 O             1 RES     
    4347 C           22.3846    17.2013   -53.1993 C             1 RES     
    4348 OA          22.6154    16.4317   -54.2654 OA            1 RES     
    4349 H           22.9743    16.9879   -54.9607 H             1 RES     
    4350 CH3          4.9715    12.0372   -35.6031 CH3           1 RES     
    4351 CH2         10.8796    10.9769   -52.0944 CH2           1 RES     
    4352 CH2         10.6068    11.9259   -50.9126 CH2           1 RES     
    4353 CH2         10.0318    11.1232   -49.7308 CH2           1 RES     
    4354 CH2          9.7591    12.0722   -48.5490 CH2           1 RES     
    4355 CH2          9.1841    11.2694   -47.3672 CH2           1 RES     
    4356 CH2          8.9113    12.2184   -46.1854 CH2           1 RES     
    4357 CH2          8.3364    11.4157   -45.0037 CH2           1 RES     
    4358 CH2          8.0636    12.3647   -43.8219 CH2           1 RES     
    4359 CH2          7.4886    11.5620   -42.6401 CH2           1 RES     
    4360 CH2          7.2159    12.5110   -41.4583 CH2           1 RES     
    4361 CH2          6.6409    11.7082   -40.2765 CH2           1 RES     
    4362 CH2          6.3681    12.6572   -39.0947 CH2           1 RES     
    4363 CH2          5.7931    11.8545   -37.9129 CH2           1 RES     
    4364 CH2          5.5204    12.8035   -36.7312 CH2           1 RES     
    4365 O           11.6064    12.9299   -53.2024 O             1 RES     
    4366 C           11.4059    11.7164   -53.1993 C             1 RES     
    4367 OA          11.6610    10.9545   -54.2654 OA            1 RES     
    4368 H           12.0021    11.5217   -54.9607 H             1 RES     
    4369 CH3         -6.0686    38.2045   -35.6031 CH3           1 RES     
    4370 CH2         -0.0662    38.2223   -52.0944 CH2           1 RES     
    4371 CH2         -0.5049    39.1069   -50.9126 CH2           1 RES     
    4372 CH2         -0.9264    38.2140   -49.7308 CH2           1 RES     
    4373 CH2         -1.3652    39.0986   -48.5490 CH2           1 RES     
    4374 CH2         -1.7866    38.2056   -47.3672 CH2           1 RES     
    4375 CH2         -2.2254    39.0902   -46.1854 CH2           1 RES     
    4376 CH2         -2.6469    38.1973   -45.0037 CH2           1 RES     
    4377 CH2         -3.0856    39.0819   -43.8219 CH2           1 RES     
    4378 CH2         -3.5071    38.1889   -42.6401 CH2           1 RES     
    4379 CH2         -3.9458    39.0735   -41.4583 CH2           1 RES     
    4380 CH2         -4.3673    38.1806   -40.2765 CH2           1 RES     
    4381 CH2         -4.8061    39.0652   -39.0947 CH2           1 RES     
    4382 CH2         -5.2276    38.1722   -37.9129 CH2           1 RES     
    4383 CH2         -5.6663    39.0568   -36.7312 CH2           1 RES     
    4384 O            0.2981    40.2741   -53.2024 O             1 RES     
    4385 C            0.3188    39.0443   -53.1993 C             1 RES     
    4386 OA           0.7065    38.3406   -54.2654 OA            1 RES     
    4387 H            0.9402    38.9599   -54.9607 H             1 RES     
    4388 CH3          4.8846    21.9462   -35.6031 CH3           1 RES     
    4389 CH2         10.8855    21.8105   -52.0944 CH2           1 RES     
    4390 CH2         10.4695    22.7060   -50.9126 CH2           1 RES     
    4391 CH2         10.0253    21.8241   -49.7308 CH2           1 RES     
    4392 CH2          9.6094    22.7197   -48.5490 CH2           1 RES     
    4393 CH2          9.1652    21.8378   -47.3672 CH2           1 RES     
    4394 CH2          8.7492    22.7333   -46.1854 CH2           1 RES     
    4395 CH2          8.3050    21.8515   -45.0037 CH2           1 RES     
    4396 CH2          7.8890    22.7470   -43.8219 CH2           1 RES     
    4397 CH2          7.4448    21.8651   -42.6401 CH2           1 RES     
    4398 CH2          7.0289    22.7607   -41.4583 CH2           1 RES     
    4399 CH2          6.5847    21.8788   -40.2765 CH2           1 RES     
    4400 CH2          6.1687    22.7743   -39.0947 CH2           1 RES     
    4401 CH2          5.7245    21.8925   -37.9129 CH2           1 RES     
    4402 CH2          5.3086    22.7880   -36.7312 CH2           1 RES     
    4403 O           11.3022    23.8523   -53.2024 O             1 RES     
    4404 C           11.2914    22.6223   -53.1993 C             1 RES     
    4405 OA          11.6610    21.9089   -54.2654 OA            1 RES     
    4406 H           11.9105    22.5220   -54.9607 H             1 RES     
    4407 CH3         32.3383    22.8645   -35.6031 CH3           1 RES     
    4408 CH2         38.2654    21.9165   -52.0944 CH2           1 RES     
    4409 CH2         37.9747    22.8602   -50.9126 CH2           1 RES     
    4410 CH2         37.4151    22.0467   -49.7308 CH2           1 RES     
    4411 CH2         37.1243    22.9903   -48.5490 CH2           1 RES     
    4412 CH2         36.5647    22.1768   -47.3672 CH2           1 RES     
    4413 CH2         36.2740    23.1205   -46.1854 CH2           1 RES     
    4414 CH2         35.7143    22.3070   -45.0037 CH2           1 RES     
    4415 CH2         35.4236    23.2506   -43.8219 CH2           1 RES     
    4416 CH2         34.8640    22.4371   -42.6401 CH2           1 RES     
    4417 CH2         34.5732    23.3808   -41.4583 CH2           1 RES     
    4418 CH2         34.0136    22.5673   -40.2765 CH2           1 RES     
    4419 CH2         33.7229    23.5109   -39.0947 CH2           1 RES     
    4420 CH2         33.1632    22.6974   -37.9129 CH2           1 RES     
    4421 CH2         32.8725    23.6411   -36.7312 CH2           1 RES     
    4422 O           38.9551    23.8830   -53.2024 O             1 RES     
    4423 C           38.7777    22.6658   -53.1993 C             1 RES     
    4424 OA          39.0471    21.9089   -54.2654 OA            1 RES     
    4425 H           39.3774    22.4826   -54.9607 H             1 RES     
    4426 CH3         26.8624    28.3507   -35.6031 CH3           1 RES     
    4427 CH2         32.7882    27.3948   -52.0944 CH2           1 RES     
    4428 CH2         32.4988    28.3388   -50.9126 CH2           1 RES     
    4429 CH2         31.9380    27.5261   -49.7308 CH2           1 RES     
    4430 CH2         31.6486    28.4701   -48.5490 CH2           1 RES     
    4431 CH2         31.0878    27.6573   -47.3672 CH2           1 RES     
    4432 CH2         30.7984    28.6014   -46.1854 CH2           1 RES     
    4433 CH2         30.2376    27.7886   -45.0037 CH2           1 RES     
    4434 CH2         29.9482    28.7327   -43.8219 CH2           1 RES     
    4435 CH2         29.3874    27.9199   -42.6401 CH2           1 RES     
    4436 CH2         29.0980    28.8639   -41.4583 CH2           1 RES     
    4437 CH2         28.5373    28.0512   -40.2765 CH2           1 RES     
    4438 CH2         28.2478    28.9952   -39.0947 CH2           1 RES     
    4439 CH2         27.6871    28.1825   -37.9129 CH2           1 RES     
    4440 CH2         27.3976    29.1265   -36.7312 CH2           1 RES     
    4441 O           33.4805    29.3603   -53.2024 O             1 RES     
    4442 C           33.3014    28.1434   -53.1993 C             1 RES     
    4443 OA          33.5699    27.3861   -54.2654 OA            1 RES     
    4444 H           33.9010    27.9593   -54.9607 H             1 RES     
    4445 CH3         10.3686    22.2153   -35.6031 CH3           1 RES     
    4446 CH2         16.3594    21.8414   -52.0944 CH2           1 RES     
    4447 CH2         15.9793    22.7527   -50.9126 CH2           1 RES     
    4448 CH2         15.5005    21.8892   -49.7308 CH2           1 RES     
    4449 CH2         15.1204    22.8005   -48.5490 CH2           1 RES     
    4450 CH2         14.6415    21.9370   -47.3672 CH2           1 RES     
    4451 CH2         14.2615    22.8483   -46.1854 CH2           1 RES     
    4452 CH2         13.7826    21.9848   -45.0037 CH2           1 RES     
    4453 CH2         13.4025    22.8961   -43.8219 CH2           1 RES     
    4454 CH2         12.9237    22.0326   -42.6401 CH2           1 RES     
    4455 CH2         12.5436    22.9440   -41.4583 CH2           1 RES     
    4456 CH2         12.0647    22.0804   -40.2765 CH2           1 RES     
    4457 CH2         11.6847    22.9918   -39.0947 CH2           1 RES     
    4458 CH2         11.2058    22.1283   -37.9129 CH2           1 RES     
    4459 CH2         10.8257    23.0396   -36.7312 CH2           1 RES     
    4460 O           16.8569    23.8650   -53.2024 O             1 RES     
    4461 C           16.7973    22.6364   -53.1993 C             1 RES     
    4462 OA          17.1382    21.9089   -54.2654 OA            1 RES     
    4463 H           17.4119    22.5117   -54.9607 H             1 RES     
    4464 CH3         -0.4139    23.4555   -35.6031 CH3           1 RES     
    4465 CH2          5.4058    21.9858   -52.0944 CH2           1 RES     
    4466 CH2          5.1999    22.9515   -50.9126 CH2           1 RES     
    4467 CH2          4.5703    22.1908   -49.7308 CH2           1 RES     
    4468 CH2          4.3644    23.1565   -48.5490 CH2           1 RES     
    4469 CH2          3.7349    22.3958   -47.3672 CH2           1 RES     
    4470 CH2          3.5289    23.3615   -46.1854 CH2           1 RES     
    4471 CH2          2.8994    22.6008   -45.0037 CH2           1 RES     
    4472 CH2          2.6935    23.5665   -43.8219 CH2           1 RES     
    4473 CH2          2.0639    22.8059   -42.6401 CH2           1 RES     
    4474 CH2          1.8580    23.7716   -41.4583 CH2           1 RES     
    4475 CH2          1.2284    23.0109   -40.2765 CH2           1 RES     
    4476 CH2          1.0225    23.9766   -39.0947 CH2           1 RES     
    4477 CH2          0.3929    23.2159   -37.9129 CH2           1 RES     
    4478 CH2          0.1870    24.1816   -36.7312 CH2           1 RES     
    4479 O            6.2671    23.8834   -53.2024 O             1 RES     
    4480 C            5.9825    22.6868   -53.1993 C             1 RES     
    4481 OA           6.1837    21.9089   -54.2654 OA            1 RES     
    4482 H            6.5636    22.4510   -54.9607 H             1 RES     
    4483 CH3         -0.4542    28.7495   -35.6031 CH3           1 RES     
    4484 CH2          5.4040    27.4414   -52.0944 CH2           1 RES     
    4485 CH2          5.1714    28.4011   -50.9126 CH2           1 RES     
    4486 CH2          4.5632    27.6233   -49.7308 CH2           1 RES     
    4487 CH2          4.3306    28.5829   -48.5490 CH2           1 RES     
    4488 CH2          3.7223    27.8051   -47.3672 CH2           1 RES     
    4489 CH2          3.4898    28.7647   -46.1854 CH2           1 RES     
    4490 CH2          2.8815    27.9869   -45.0037 CH2           1 RES     
    4491 CH2          2.6489    28.9465   -43.8219 CH2           1 RES     
    4492 CH2          2.0407    28.1687   -42.6401 CH2           1 RES     
    4493 CH2          1.8081    29.1283   -41.4583 CH2           1 RES     
    4494 CH2          1.1998    28.3505   -40.2765 CH2           1 RES     
    4495 CH2          0.9673    29.3102   -39.0947 CH2           1 RES     
    4496 CH2          0.3590    28.5323   -37.9129 CH2           1 RES     
    4497 CH2          0.1264    29.4920   -36.7312 CH2           1 RES     
    4498 O            6.2124    29.3621   -53.2024 O             1 RES     
    4499 C            5.9610    28.1581   -53.1993 C             1 RES     
    4500 OA           6.1837    27.3861   -54.2654 OA            1 RES     
    4501 H            6.5485    27.9386   -54.9607 H             1 RES     
    4502 CH3         21.3290     5.0598   -35.6031 CH3           1 RES     
    4503 CH2         27.3255     5.3270   -52.0944 CH2           1 RES     
    4504 CH2         26.8504     6.1926   -50.9126 CH2           1 RES     
    4505 CH2         26.4664     5.2829   -49.7308 CH2           1 RES     
    4506 CH2         25.9913     6.1485   -48.5490 CH2           1 RES     
    4507 CH2         25.6072     5.2388   -47.3672 CH2           1 RES     
    4508 CH2         25.1321     6.1044   -46.1854 CH2           1 RES     
    4509 CH2         24.7481     5.1948   -45.0037 CH2           1 RES     
    4510 CH2         24.2730     6.0604   -43.8219 CH2           1 RES     
    4511 CH2         23.8890     5.1507   -42.6401 CH2           1 RES     
    4512 CH2         23.4139     6.0163   -41.4583 CH2           1 RES     
    4513 CH2         23.0298     5.1066   -40.2765 CH2           1 RES     
    4514 CH2         22.5547     5.9722   -39.0947 CH2           1 RES     
    4515 CH2         22.1707     5.0625   -37.9129 CH2           1 RES     
    4516 CH2         21.6956     5.9281   -36.7312 CH2           1 RES     
    4517 O           27.6043     7.3922   -53.2024 O             1 RES     
    4518 C           27.6760     6.1643   -53.1993 C             1 RES     
    4519 OA          28.0926     5.4772   -54.2654 OA            1 RES     
    4520 H           28.3004     6.1057   -54.9607 H             1 RES     
    4521 CH3         15.9184     4.4423   -35.6031 CH3           1 RES     
    4522 CH2         21.8653     5.2574   -52.0944 CH2           1 RES     
    4523 CH2         21.3129     6.0758   -50.9126 CH2           1 RES     
    4524 CH2         21.0138     5.1348   -49.7308 CH2           1 RES     
    4525 CH2         20.4614     5.9533   -48.5490 CH2           1 RES     
    4526 CH2         20.1623     5.0123   -47.3672 CH2           1 RES     
    4527 CH2         19.6099     5.8307   -46.1854 CH2           1 RES     
    4528 CH2         19.3108     4.8897   -45.0037 CH2           1 RES     
    4529 CH2         18.7584     5.7082   -43.8219 CH2           1 RES     
    4530 CH2         18.4593     4.7672   -42.6401 CH2           1 RES     
    4531 CH2         17.9069     5.5856   -41.4583 CH2           1 RES     
    4532 CH2         17.6078     4.6446   -40.2765 CH2           1 RES     
    4533 CH2         17.0554     5.4631   -39.0947 CH2           1 RES     
    4534 CH2         16.7563     4.5221   -37.9129 CH2           1 RES     
    4535 CH2         16.2039     5.3405   -36.7312 CH2           1 RES     
    4536 O           21.9538     7.3394   -53.2024 O             1 RES     
    4537 C           22.1377     6.1232   -53.1993 C             1 RES     
    4538 OA          22.6154     5.4772   -54.2654 OA            1 RES     
    4539 H           22.7648     6.1221   -54.9607 H             1 RES     
    4540 CH3         -6.0644    33.1379   -35.6031 CH3           1 RES     
    4541 CH2         -0.0719    32.7921   -52.0944 CH2           1 RES     
    4542 CH2         -0.4563    33.7017   -50.9126 CH2           1 RES     
    4543 CH2         -0.9311    32.8359   -49.7308 CH2           1 RES     
    4544 CH2         -1.3154    33.7454   -48.5490 CH2           1 RES     
    4545 CH2         -1.7902    32.8797   -47.3672 CH2           1 RES     
    4546 CH2         -2.1746    33.7892   -46.1854 CH2           1 RES     
    4547 CH2         -2.6494    32.9234   -45.0037 CH2           1 RES     
    4548 CH2         -3.0338    33.8330   -43.8219 CH2           1 RES     
    4549 CH2         -3.5086    32.9672   -42.6401 CH2           1 RES     
    4550 CH2         -3.8929    33.8767   -41.4583 CH2           1 RES     
    4551 CH2         -4.3677    33.0110   -40.2765 CH2           1 RES     
    4552 CH2         -4.7521    33.9205   -39.0947 CH2           1 RES     
    4553 CH2         -5.2269    33.0547   -37.9129 CH2           1 RES     
    4554 CH2         -5.6112    33.9643   -36.7312 CH2           1 RES     
    4555 O            0.4160    34.8181   -53.2024 O             1 RES     
    4556 C            0.3621    33.5893   -53.1993 C             1 RES     
    4557 OA           0.7065    32.8634   -54.2654 OA            1 RES     
    4558 H            0.9773    33.4674   -54.9607 H             1 RES     
    4559 CH3         26.9341    15.0576   -35.6031 CH3           1 RES     
    4560 CH2         32.8319    16.1740   -52.0944 CH2           1 RES     
    4561 CH2         32.2386    16.9633   -50.9126 CH2           1 RES     
    4562 CH2         31.9877    16.0083   -49.7308 CH2           1 RES     
    4563 CH2         31.3944    16.7976   -48.5490 CH2           1 RES     
    4564 CH2         31.1435    15.8426   -47.3672 CH2           1 RES     
    4565 CH2         30.5503    16.6319   -46.1854 CH2           1 RES     
    4566 CH2         30.2994    15.6769   -45.0037 CH2           1 RES     
    4567 CH2         29.7061    16.4662   -43.8219 CH2           1 RES     
    4568 CH2         29.4552    15.5112   -42.6401 CH2           1 RES     
    4569 CH2         28.8620    16.3006   -41.4583 CH2           1 RES     
    4570 CH2         28.6111    15.3456   -40.2765 CH2           1 RES     
    4571 CH2         28.0178    16.1349   -39.0947 CH2           1 RES     
    4572 CH2         27.7669    15.1799   -37.9129 CH2           1 RES     
    4573 CH2         27.1736    15.9692   -36.7312 CH2           1 RES     
    4574 O           32.8144    18.2578   -53.2024 O             1 RES     
    4575 C           33.0599    17.0525   -53.1993 C             1 RES     
    4576 OA          33.5699    16.4317   -54.2654 OA            1 RES     
    4577 H           33.6863    17.0833   -54.9607 H             1 RES     
    4578 CH3         26.8978     1.1851   -35.6031 CH3           1 RES     
    4579 CH2         32.7889     0.0344   -52.0944 CH2           1 RES     
    4580 CH2         32.5307     0.9875   -50.9126 CH2           1 RES     
    4581 CH2         31.9435     0.1936   -49.7308 CH2           1 RES     
    4582 CH2         31.6853     1.1467   -48.5490 CH2           1 RES     
    4583 CH2         31.0981     0.3529   -47.3672 CH2           1 RES     
    4584 CH2         30.8399     1.3059   -46.1854 CH2           1 RES     
    4585 CH2         30.2527     0.5121   -45.0037 CH2           1 RES     
    4586 CH2         29.9945     1.4652   -43.8219 CH2           1 RES     
    4587 CH2         29.4073     0.6713   -42.6401 CH2           1 RES     
    4588 CH2         29.1491     1.6244   -41.4583 CH2           1 RES     
    4589 CH2         28.5619     0.8306   -40.2765 CH2           1 RES     
    4590 CH2         28.3037     1.7836   -39.0947 CH2           1 RES     
    4591 CH2         27.7165     0.9898   -37.9129 CH2           1 RES     
    4592 CH2         27.4583     1.9429   -36.7312 CH2           1 RES     
    4593 O           33.5456     1.9761   -53.2024 O             1 RES     
    4594 C           33.3265     0.7657   -53.1993 C             1 RES     
    4595 OA          33.5699     0.0000   -54.2654 OA            1 RES     
    4596 H           33.9197     0.5620   -54.9607 H             1 RES     
    4597 CH3         -0.5810    16.8311   -35.6031 CH3           1 RES     
    4598 CH2          5.4041    16.3748   -52.0944 CH2           1 RES     
    4599 CH2          5.0366    17.2913   -50.9126 CH2           1 RES     
    4600 CH2          4.5459    16.4345   -49.7308 CH2           1 RES     
    4601 CH2          4.1784    17.3509   -48.5490 CH2           1 RES     
    4602 CH2          3.6877    16.4941   -47.3672 CH2           1 RES     
    4603 CH2          3.3202    17.4105   -46.1854 CH2           1 RES     
    4604 CH2          2.8295    16.5537   -45.0037 CH2           1 RES     
    4605 CH2          2.4620    17.4702   -43.8219 CH2           1 RES     
    4606 CH2          1.9713    16.6133   -42.6401 CH2           1 RES     
    4607 CH2          1.6038    17.5298   -41.4583 CH2           1 RES     
    4608 CH2          1.1131    16.6729   -40.2765 CH2           1 RES     
    4609 CH2          0.7456    17.5894   -39.0947 CH2           1 RES     
    4610 CH2          0.2549    16.7325   -37.9129 CH2           1 RES     
    4611 CH2         -0.1126    17.6490   -36.7312 CH2           1 RES     
    4612 O            5.9293    18.3915   -53.2024 O             1 RES     
    4613 C            5.8528    17.1638   -53.1993 C             1 RES     
    4614 OA           6.1837    16.4317   -54.2654 OA            1 RES     
    4615 H            6.4657    17.0306   -54.9607 H             1 RES     
    4616 CH3         -0.5924     5.4057   -35.6031 CH3           1 RES     
    4617 CH2          5.4099     5.3664   -52.0944 CH2           1 RES     
    4618 CH2          4.9796     6.2551   -50.9126 CH2           1 RES     
    4619 CH2          4.5497     5.3662   -49.7308 CH2           1 RES     
    4620 CH2          4.1194     6.2549   -48.5490 CH2           1 RES     
    4621 CH2          3.6894     5.3661   -47.3672 CH2           1 RES     
    4622 CH2          3.2591     6.2548   -46.1854 CH2           1 RES     
    4623 CH2          2.8291     5.3659   -45.0037 CH2           1 RES     
    4624 CH2          2.3988     6.2546   -43.8219 CH2           1 RES     
    4625 CH2          1.9689     5.3658   -42.6401 CH2           1 RES     
    4626 CH2          1.5386     6.2545   -41.4583 CH2           1 RES     
    4627 CH2          1.1086     5.3656   -40.2765 CH2           1 RES     
    4628 CH2          0.6783     6.2543   -39.0947 CH2           1 RES     
    4629 CH2          0.2483     5.3654   -37.9129 CH2           1 RES     
    4630 CH2         -0.1820     6.2542   -36.7312 CH2           1 RES     
    4631 O            5.7938     7.4146   -53.2024 O             1 RES     
    4632 C            5.8028     6.1846   -53.1993 C             1 RES     
    4633 OA           6.1837     5.4772   -54.2654 OA            1 RES     
    4634 H            6.4234     6.0943   -54.9607 H             1 RES     
    4635 CH3         26.8221    21.2856   -35.6031 CH3           1 RES     
    4636 CH2         32.8077    21.7354   -52.0944 CH2           1 RES     
    4637 CH2         32.3064    22.5861   -50.9126 CH2           1 RES     
    4638 CH2         31.9503    21.6651   -49.7308 CH2           1 RES     
    4639 CH2         31.4490    22.5159   -48.5490 CH2           1 RES     
    4640 CH2         31.0929    21.5949   -47.3672 CH2           1 RES     
    4641 CH2         30.5916    22.4456   -46.1854 CH2           1 RES     
    4642 CH2         30.2355    21.5247   -45.0037 CH2           1 RES     
    4643 CH2         29.7342    22.3754   -43.8219 CH2           1 RES     
    4644 CH2         29.3781    21.4545   -42.6401 CH2           1 RES     
    4645 CH2         28.8768    22.3052   -41.4583 CH2           1 RES     
    4646 CH2         28.5207    21.3842   -40.2765 CH2           1 RES     
    4647 CH2         28.0194    22.2349   -39.0947 CH2           1 RES     
    4648 CH2         27.6633    21.3140   -37.9129 CH2           1 RES     
    4649 CH2         27.1620    22.1647   -36.7312 CH2           1 RES     
    4650 O           33.0234    23.8081   -53.2024 O             1 RES     
    4651 C           33.1325    22.5829   -53.1993 C             1 RES     
    4652 OA          33.5699    21.9089   -54.2654 OA            1 RES     
    4653 H           33.7584    22.5434   -54.9607 H             1 RES     
    4654 CH3         10.3953    33.5376   -35.6031 CH3           1 RES     
    4655 CH2         16.3569    32.8383   -52.0944 CH2           1 RES     
    4656 CH2         16.0270    33.7689   -50.9126 CH2           1 RES     
    4657 CH2         15.5018    32.9327   -49.7308 CH2           1 RES     
    4658 CH2         15.1719    33.8634   -48.5490 CH2           1 RES     
    4659 CH2         14.6468    33.0272   -47.3672 CH2           1 RES     
    4660 CH2         14.3168    33.9579   -46.1854 CH2           1 RES     
    4661 CH2         13.7917    33.1217   -45.0037 CH2           1 RES     
    4662 CH2         13.4618    34.0523   -43.8219 CH2           1 RES     
    4663 CH2         12.9366    33.2161   -42.6401 CH2           1 RES     
    4664 CH2         12.6067    34.1468   -41.4583 CH2           1 RES     
    4665 CH2         12.0816    33.3106   -40.2765 CH2           1 RES     
    4666 CH2         11.7516    34.2413   -39.0947 CH2           1 RES     
    4667 CH2         11.2265    33.4051   -37.9129 CH2           1 RES     
    4668 CH2         10.8966    34.3357   -36.7312 CH2           1 RES     
    4669 O           16.9637    34.8319   -53.2024 O             1 RES     
    4670 C           16.8373    33.6084   -53.1993 C             1 RES     
    4671 OA          17.1382    32.8634   -54.2654 OA            1 RES     
    4672 H           17.4442    33.4503   -54.9607 H             1 RES     
    4673 OW          12.3920    24.9420     1.7990 OW            1 RES     
    4674 HW1         12.8850    25.4330     2.5160 HW1           1 RES     
    4675 HW2         11.4360    25.2350     1.7890 HW2           1 RES     
    4676 OW           8.1150     4.0190    16.3560 OW            1 RES     
    4677 HW1          8.8680     3.6180    15.8370 HW1           1 RES     
    4678 HW2          8.1980     3.7620    17.3190 HW2           1 RES     
    4679 OW           8.0010    15.0380    14.1890 OW            1 RES     
    4680 HW1          7.4140    15.0400    14.9980 HW1           1 RES     
    4681 HW2          8.4660    15.9200    14.1120 HW2           1 RES     
    4682 OW          -1.8590    11.9560     9.4590 OW            1 RES     
    4683 HW1         -1.3430    12.8120     9.4560 HW1           1 RES     
    4684 HW2         -1.2290    11.1860     9.5600 HW2           1 RES     
    4685 OW           3.5960    31.6390     8.1940 OW            1 RES     
    4686 HW1          4.2710    32.1680     8.7070 HW1           1 RES     
    4687 HW2          3.3070    32.1560     7.3890 HW2           1 RES     
    4688 OW          12.2160    29.9170    14.4630 OW            1 RES     
    4689 HW1         11.2960    30.1320    14.7890 HW1           1 RES     
    4690 HW2         12.2500    28.9630    14.1650 HW2           1 RES     
    4691 OW          44.3170     1.8840    14.1010 OW            1 RES     
    4692 HW1         44.6490     1.6150    13.1980 HW1           1 RES     
    4693 HW2         44.6980     2.7770    14.3440 HW2           1 RES     
    4694 OW          29.6470    42.7310     3.4410 OW            1 RES     
    4695 HW1         30.0910    41.8470     3.2980 HW1           1 RES     
    4696 HW2         28.8730    42.8210     2.8130 HW2           1 RES     
    4697 OW          18.2600     4.0220    15.3430 OW            1 RES     
    4698 HW1         19.0470     3.5040    15.0110 HW1           1 RES     
    4699 HW2         18.5780     4.8110    15.8700 HW2           1 RES     
    4700 OW          -5.4460    40.2120    10.4400 OW            1 RES     
    4701 HW1         -6.0070    40.0050     9.6390 HW1           1 RES     
    4702 HW2         -5.8240    39.7480    11.2410 HW2           1 RES     
    4703 OW          10.6870    21.4650     8.7950 OW            1 RES     
    4704 HW1         11.5750    21.0070     8.8090 HW1           1 RES     
    4705 HW2          9.9740    20.8050     8.5550 HW2           1 RES     
    4706 OW          41.6880     6.2670    14.2770 OW            1 RES     
    4707 HW1         41.7110     7.2100    14.6050 HW1           1 RES     
    4708 HW2         42.4160     5.7410    14.7180 HW2           1 RES     
    4709 OW           5.2090    22.8720    13.8120 OW            1 RES     
    4710 HW1          5.7320    22.0410    13.9970 HW1           1 RES     
    4711 HW2          4.9520    22.8980    12.8460 HW2           1 RES     
    4712 OW          22.1740     1.1260     5.3180 OW            1 RES     
    4713 HW1         21.8970     0.1670     5.3550 HW1           1 RES     
    4714 HW2         23.1530     1.1840     5.1190 HW2           1 RES     
    4715 OW          35.0920    39.3300    10.1190 OW            1 RES     
    4716 HW1         35.5730    40.1270     9.7570 HW1           1 RES     
    4717 HW2         34.1230    39.3860     9.8750 HW2           1 RES     
    4718 OW          35.1260    39.4580     6.8060 OW            1 RES     
    4719 HW1         35.8030    38.7250     6.7490 HW1           1 RES     
    4720 HW2         35.5880    40.3230     7.0070 HW2           1 RES     
    4721 OW          37.2080    31.0180     6.9780 OW            1 RES     
    4722 HW1         37.9600    31.6700     6.8870 HW1           1 RES     
    4723 HW2         37.5760    30.1080     7.1680 HW2           1 RES     
    4724 OW          17.5490    19.6540     1.8030 OW            1 RES     
    4725 HW1         16.7900    19.8990     2.4050 HW1           1 RES     
    4726 HW2         17.7240    18.6720     1.8690 HW2           1 RES     
    4727 OW           7.1840    -3.6470    17.1330 OW            1 RES     
    4728 HW1          7.2300    -2.6830    17.3910 HW1           1 RES     
    4729 HW2          8.1070    -4.0320    17.1120 HW2           1 RES     
    4730 OW          15.1320    33.8210    14.1060 OW            1 RES     
    4731 HW1         14.3280    33.5620    14.6410 HW1           1 RES     
    4732 HW2         14.9830    33.5870    13.1450 HW2           1 RES     
    4733 OW           8.2740    30.1920     4.6270 OW            1 RES     
    4734 HW1          8.6930    29.2850     4.6150 HW1           1 RES     
    4735 HW2          8.9900    30.8910     4.6200 HW2           1 RES     
    4736 OW          17.3500    41.3460     8.8370 OW            1 RES     
    4737 HW1         17.2210    42.2030     8.3390 HW1           1 RES     
    4738 HW2         18.2460    40.9620     8.6150 HW2           1 RES     
    4739 OW          33.2320    42.7980     7.2600 OW            1 RES     
    4740 HW1         32.4350    43.1640     7.7390 HW1           1 RES     
    4741 HW2         32.9310    42.1940     6.5220 HW2           1 RES     
    4742 OW          18.8870    30.3070     3.0060 OW            1 RES     
    4743 HW1         18.6250    29.3730     2.7640 HW1           1 RES     
    4744 HW2         19.5250    30.6620     2.3230 HW2           1 RES     
    4745 OW           8.8110    33.3280     8.7940 OW            1 RES     
    4746 HW1          8.9370    33.3640     7.8030 HW1           1 RES     
    4747 HW2          8.3810    32.4600     9.0440 HW2           1 RES     
    4748 OW          14.7700    -4.3140     7.4020 OW            1 RES     
    4749 HW1         14.5470    -3.8310     6.5560 HW1           1 RES     
    4750 HW2         15.3200    -3.7200     7.9900 HW2           1 RES     
    4751 OW          28.2820     2.9030    16.7120 OW            1 RES     
    4752 HW1         28.8450     3.5620    17.2110 HW1           1 RES     
    4753 HW2         27.8660     3.3520    15.9210 HW2           1 RES     
    4754 OW          -2.4360    42.5780    12.9140 OW            1 RES     
    4755 HW1         -2.7180    41.6530    13.1640 HW1           1 RES     
    4756 HW2         -3.2420    43.1190    12.6730 HW2           1 RES     
    4757 OW          26.3440     7.3760    11.6900 OW            1 RES     
    4758 HW1         27.2170     7.8480    11.8070 HW1           1 RES     
    4759 HW2         26.2560     6.6590    12.3820 HW2           1 RES     
    4760 OW           4.0490    31.7830    12.4000 OW            1 RES     
    4761 HW1          4.5850    31.0210    12.0370 HW1           1 RES     
    4762 HW2          4.6610    32.4430    12.8360 HW2           1 RES     
    4763 OW           9.5930    -1.9420     2.6830 OW            1 RES     
    4764 HW1          8.7360    -1.4550     2.8420 HW1           1 RES     
    4765 HW2          9.4500    -2.9230     2.8210 HW2           1 RES     
    4766 OW          22.7570     5.2120     2.5160 OW            1 RES     
    4767 HW1         22.4730     4.2550     2.4770 HW1           1 RES     
    4768 HW2         21.9520     5.7950     2.6290 HW2           1 RES     
    4769 OW          32.9150    19.1390    15.3860 OW            1 RES     
    4770 HW1         33.4880    18.3400    15.5640 HW1           1 RES     
    4771 HW2         32.6470    19.5580    16.2540 HW2           1 RES     
    4772 OW          36.7910    25.2290     2.3460 OW            1 RES     
    4773 HW1         35.8510    25.5270     2.1800 HW1           1 RES     
    4774 HW2         37.3530    26.0190     2.5900 HW2           1 RES     
    4775 OW          12.8310    15.4350     6.1800 OW            1 RES     
    4776 HW1         12.0020    15.9250     6.4480 HW1           1 RES     
    4777 HW2         13.6120    15.7940     6.6920 HW2           1 RES     
    4778 OW          29.5740     1.8910    11.6080 OW            1 RES     
    4779 HW1         28.9610     1.1100    11.4940 HW1           1 RES     
    4780 HW2         30.3510     1.8000    10.9860 HW2           1 RES     
    4781 OW          34.2780     3.2680     2.7780 OW            1 RES     
    4782 HW1         33.9890     3.1530     1.8280 HW1           1 RES     
    4783 HW2         33.5180     3.6290     3.3180 HW2           1 RES     
    4784 OW          10.6100    40.3760    10.3070 OW            1 RES     
    4785 HW1         10.8900    41.2140    10.7750 HW1           1 RES     
    4786 HW2         10.0810    39.8040    10.9350 HW2           1 RES     
    4787 OW          -2.3450    27.4170    12.7530 OW            1 RES     
    4788 HW1         -1.6400    26.7270    12.9100 HW1           1 RES     
    4789 HW2         -3.2400    26.9730    12.6910 HW2           1 RES     
    4790 OW           0.9340    13.2330    10.4240 OW            1 RES     
    4791 HW1          1.7270    12.9230     9.9010 HW1           1 RES     
    4792 HW2          0.6370    12.5060    11.0430 HW2           1 RES     
    4793 OW          -2.7260    13.2020    16.1190 OW            1 RES     
    4794 HW1         -2.9080    12.8390    17.0320 HW1           1 RES     
    4795 HW2         -1.9600    12.7070    15.7090 HW2           1 RES     
    4796 OW          25.2780    -0.8570     2.3640 OW            1 RES     
    4797 HW1         24.6370    -0.3530     1.7860 HW1           1 RES     
    4798 HW2         25.2950    -1.8170     2.0850 HW2           1 RES     
    4799 OW          16.3030    40.1940    13.7130 OW            1 RES     
    4800 HW1         16.6650    39.3200    14.0350 HW1           1 RES     
    4801 HW2         15.4720    40.4200    14.2220 HW2           1 RES     
    4802 OW          -3.8440    -0.2810    15.4310 OW            1 RES     
    4803 HW1         -2.9670     0.0330    15.7950 HW1           1 RES     
    4804 HW2         -4.4350     0.5080    15.2580 HW2           1 RES     
    4805 OW          31.7490     5.2050    15.3250 OW            1 RES     
    4806 HW1         30.8550     5.1210    15.7620 HW1           1 RES     
    4807 HW2         32.3330     4.4440    15.6100 HW2           1 RES     
    4808 OW          40.8750    27.5150    16.9300 OW            1 RES     
    4809 HW1         40.6680    28.2140    16.2460 HW1           1 RES     
    4810 HW2         40.0310    27.2380    17.3900 HW2           1 RES     
    4811 OW           9.1540    38.2340    17.3970 OW            1 RES     
    4812 HW1          8.2990    38.5820    17.0150 HW1           1 RES     
    4813 HW2          9.2960    37.2910    17.0950 HW2           1 RES     
    4814 OW          30.9930    -3.0660     6.5270 OW            1 RES     
    4815 HW1         30.6840    -3.3120     7.4450 HW1           1 RES     
    4816 HW2         31.3860    -3.8700     6.0810 HW2           1 RES     
    4817 OW          13.3050    29.5080    17.0690 OW            1 RES     
    4818 HW1         14.0820    30.0470    17.3920 HW1           1 RES     
    4819 HW2         12.6490    30.1090    16.6110 HW2           1 RES     
    4820 OW          15.3630    18.8680    10.4370 OW            1 RES     
    4821 HW1         14.7820    19.6260    10.1410 HW1           1 RES     
    4822 HW2         15.9170    18.5520     9.6670 HW2           1 RES     
    4823 OW          26.3250    43.2760     9.3890 OW            1 RES     
    4824 HW1         25.5680    42.6250     9.3800 HW1           1 RES     
    4825 HW2         27.1930    42.7800     9.4300 HW2           1 RES     
    4826 OW          -4.4600    22.8380     1.8050 OW            1 RES     
    4827 HW1         -5.4100    22.5290     1.8050 HW1           1 RES     
    4828 HW2         -3.8510    22.0450     1.7870 HW2           1 RES     
    4829 OW          32.9590    30.8160     2.8800 OW            1 RES     
    4830 HW1         33.2900    30.0360     2.3490 HW1           1 RES     
    4831 HW2         33.7110    31.4550     3.0400 HW2           1 RES     
    4832 OW          23.8970     6.0890    17.2580 OW            1 RES     
    4833 HW1         24.3160     5.1920    17.3950 HW1           1 RES     
    4834 HW2         24.5980     6.7990    17.3310 HW2           1 RES     
    4835 OW           9.3080    27.9340    13.5950 OW            1 RES     
    4836 HW1         10.2970    28.0730    13.5650 HW1           1 RES     
    4837 HW2          8.8440    28.8100    13.4600 HW2           1 RES     
    4838 OW          20.5300     7.1200     9.3350 OW            1 RES     
    4839 HW1         20.4810     6.4340    10.0610 HW1           1 RES     
    4840 HW2         20.9960     6.7320     8.5400 HW2           1 RES     
    4841 OW          43.6160    40.4900     4.2000 OW            1 RES     
    4842 HW1         43.1000    39.6420     4.0800 HW1           1 RES     
    4843 HW2         44.5840    40.3220     4.0120 HW2           1 RES     
    4844 OW           1.3470    21.6080    15.1920 OW            1 RES     
    4845 HW1          0.6100    21.0440    15.5640 HW1           1 RES     
    4846 HW2          2.0120    21.0230    14.7260 HW2           1 RES     
    4847 OW           8.0110     8.3440     5.5630 OW            1 RES     
    4848 HW1          8.1620     9.0400     6.2640 HW1           1 RES     
    4849 HW2          7.5970     7.5340     5.9790 HW2           1 RES     
    4850 OW          20.7020    11.0700    11.4570 OW            1 RES     
    4851 HW1         20.5940    10.4980    10.6450 HW1           1 RES     
    4852 HW2         21.5380    10.8100    11.9400 HW2           1 RES     
    4853 OW          43.0750     3.9160    10.9180 OW            1 RES     
    4854 HW1         43.0260     4.8940    11.1170 HW1           1 RES     
    4855 HW2         44.0100     3.6750    10.6560 HW2           1 RES     
    4856 OW           3.3730    36.5460     6.7650 OW            1 RES     
    4857 HW1          2.5710    37.0450     7.0920 HW1           1 RES     
    4858 HW2          3.9390    37.1520     6.2060 HW2           1 RES     
    4859 OW           7.2800    36.6340     9.1550 OW            1 RES     
    4860 HW1          8.1520    36.7550     8.6820 HW1           1 RES     
    4861 HW2          7.0180    35.6690     9.1320 HW2           1 RES     
    4862 OW          36.9520    15.3920    16.6560 OW            1 RES     
    4863 HW1         37.3170    15.9820    17.3750 HW1           1 RES     
    4864 HW2         36.9950    14.4380    16.9530 HW2           1 RES     
    4865 OW           2.0540    27.8040     6.8980 OW            1 RES     
    4866 HW1          1.2550    27.2290     7.0700 HW1           1 RES     
    4867 HW2          2.8860    27.2930     7.1110 HW2           1 RES     
    4868 OW           1.8150    26.9950    10.9550 OW            1 RES     
    4869 HW1          2.3030    27.7420    10.5050 HW1           1 RES     
    4870 HW2          2.4460    26.2380    11.1250 HW2           1 RES     
    4871 OW          32.1790    -0.9750     8.9060 OW            1 RES     
    4872 HW1         31.8320    -0.0950     9.2290 HW1           1 RES     
    4873 HW2         33.1210    -0.8660     8.5880 HW2           1 RES     
    4874 OW          25.7890    42.8790     6.4230 OW            1 RES     
    4875 HW1         25.7740    42.0780     5.8240 HW1           1 RES     
    4876 HW2         25.1810    42.7240     7.2020 HW2           1 RES     
    4877 OW          33.3160     6.8590     2.4450 OW            1 RES     
    4878 HW1         33.3550     7.0060     3.4330 HW1           1 RES     
    4879 HW2         32.9490     7.6760     2.0000 HW2           1 RES     
    4880 OW           4.4940     0.8390    17.3970 OW            1 RES     
    4881 HW1          5.2420     1.5000    17.3910 HW1           1 RES     
    4882 HW2          3.7740     1.1430    16.7730 HW2           1 RES     
    4883 OW          10.5410    13.1030     2.4740 OW            1 RES     
    4884 HW1         11.2010    13.8520     2.5310 HW1           1 RES     
    4885 HW2          9.6330    13.4720     2.2740 HW2           1 RES     
    4886 OW          26.1750    12.7580     7.9030 OW            1 RES     
    4887 HW1         26.1600    13.6290     7.4150 HW1           1 RES     
    4888 HW2         27.0820    12.6100     8.2960 HW2           1 RES     
    4889 OW          23.3590    10.5350     9.1640 OW            1 RES     
    4890 HW1         24.0530    10.8580     9.8060 HW1           1 RES     
    4891 HW2         22.5870    11.1710     9.1590 HW2           1 RES     
    4892 OW          12.9050     9.5520    14.5530 OW            1 RES     
    4893 HW1         12.6050     8.6530    14.2370 HW1           1 RES     
    4894 HW2         12.1100    10.0900    14.8350 HW2           1 RES     
    4895 OW          24.8150    -0.7160    13.1060 OW            1 RES     
    4896 HW1         25.1380    -0.2970    12.2580 HW1           1 RES     
    4897 HW2         24.7380    -1.7050    12.9810 HW2           1 RES     
    4898 OW          16.3430    -1.1170     4.8750 OW            1 RES     
    4899 HW1         16.8660    -0.3000     4.6360 HW1           1 RES     
    4900 HW2         16.8860    -1.6950     5.4840 HW2           1 RES     
    4901 OW          -5.5720    41.6500    15.8590 OW            1 RES     
    4902 HW1         -4.8670    40.9460    15.7810 HW1           1 RES     
    4903 HW2         -5.1430    42.5540    15.8610 HW2           1 RES     
    4904 OW          10.9310    20.7480     1.7890 OW            1 RES     
    4905 HW1         11.8660    21.0840     1.8990 HW1           1 RES     
    4906 HW2         10.7630    20.0080     2.4410 HW2           1 RES     
    4907 OW          -1.3390    25.3960    15.3830 OW            1 RES     
    4908 HW1         -2.3040    25.6060    15.2260 HW1           1 RES     
    4909 HW2         -0.7780    26.1730    15.0980 HW2           1 RES     
    4910 OW          22.5580    19.2790     4.2290 OW            1 RES     
    4911 HW1         21.5630    19.2880     4.3150 HW1           1 RES     
    4912 HW2         22.8510    18.4110     3.8280 HW2           1 RES     
    4913 OW           5.7970    37.7230     7.2480 OW            1 RES     
    4914 HW1          6.7210    38.0090     7.4960 HW1           1 RES     
    4915 HW2          5.1310    38.3300     7.6830 HW2           1 RES     
    4916 OW          41.1000    29.9020    10.2770 OW            1 RES     
    4917 HW1         41.5910    29.5780    11.0860 HW1           1 RES     
    4918 HW2         40.1880    30.2140    10.5430 HW2           1 RES     
    4919 OW          16.9630    35.4040    15.3240 OW            1 RES     
    4920 HW1         17.0790    34.4730    15.6690 HW1           1 RES     
    4921 HW2         16.0700    35.7550    15.6050 HW2           1 RES     
    4922 OW          -0.7360    29.8030    14.8260 OW            1 RES     
    4923 HW1          0.0590    29.2070    14.7200 HW1           1 RES     
    4924 HW2         -1.5690    29.2860    14.6280 HW2           1 RES     
    4925 OW          18.5480    34.7920     6.0160 OW            1 RES     
    4926 HW1         18.2140    35.2950     5.2200 HW1           1 RES     
    4927 HW2         18.5930    33.8170     5.8000 HW2           1 RES     
    4928 OW          -3.2960     7.2560     7.7090 OW            1 RES     
    4929 HW1         -2.8910     6.3780     7.9600 HW1           1 RES     
    4930 HW2         -4.0820     7.1020     7.1090 HW2           1 RES     
    4931 OW          20.2110    19.4730     9.4080 OW            1 RES     
    4932 HW1         20.1700    18.4770     9.3320 HW1           1 RES     
    4933 HW2         21.0070    19.8140     8.9070 HW2           1 RES     
    4934 OW           7.6280    38.2470    13.2630 OW            1 RES     
    4935 HW1          6.7420    38.4630    13.6700 HW1           1 RES     
    4936 HW2          8.1250    39.0940    13.0740 HW2           1 RES     
    4937 OW          27.6900    26.7960     4.9160 OW            1 RES     
    4938 HW1         28.2460    27.4070     4.3530 HW1           1 RES     
    4939 HW2         27.9470    26.9030     5.8770 HW2           1 RES     
    4940 OW          25.4180    26.9980    17.0400 OW            1 RES     
    4941 HW1         25.4360    27.9570    16.7600 HW1           1 RES     
    4942 HW2         26.2400    26.5370    16.7060 HW2           1 RES     
    4943 OW           6.4840    -2.8770     4.1250 OW            1 RES     
    4944 HW1          6.2020    -3.7400     4.5430 HW1           1 RES     
    4945 HW2          5.7280    -2.2230     4.1690 HW2           1 RES     
    4946 OW          30.1780    16.3660     1.7870 OW            1 RES     
    4947 HW1         29.2440    16.3060     2.1370 HW1           1 RES     
    4948 HW2         30.8010    15.9020     2.4170 HW2           1 RES     
    4949 OW          27.2170     5.5280    14.0470 OW            1 RES     
    4950 HW1         27.0460     4.5720    14.2810 HW1           1 RES     
    4951 HW2         28.2010     5.6750    13.9410 HW2           1 RES     
    4952 OW          35.3830    40.7060    12.9590 OW            1 RES     
    4953 HW1         35.1880    41.6490    13.2280 HW1           1 RES     
    4954 HW2         35.5620    40.6690    11.9760 HW2           1 RES     
    4955 OW          -0.9280    37.0670     9.4350 OW            1 RES     
    4956 HW1         -0.0120    37.3870     9.1940 HW1           1 RES     
    4957 HW2         -0.8660    36.1550     9.8420 HW2           1 RES     
    4958 OW          -5.0750     3.3180     9.1880 OW            1 RES     
    4959 HW1         -4.2590     3.6730     9.6420 HW1           1 RES     
    4960 HW2         -5.0890     3.6240     8.2360 HW2           1 RES     
    4961 OW          25.8840    13.2800    10.5610 OW            1 RES     
    4962 HW1         25.1390    12.6150    10.5650 HW1           1 RES     
    4963 HW2         25.7970    13.8740     9.7610 HW2           1 RES     
    4964 OW          33.3530    37.9400    11.3880 OW            1 RES     
    4965 HW1         32.6000    37.2830    11.3910 HW1           1 RES     
    4966 HW2         34.2240    37.4490    11.3910 HW2           1 RES     
    4967 OW           6.4850    31.7760     5.4740 OW            1 RES     
    4968 HW1          7.4310    32.0160     5.6900 HW1           1 RES     
    4969 HW2          5.9650    32.6080     5.2820 HW2           1 RES     
    4970 OW          39.1660    16.1900    14.3330 OW            1 RES     
    4971 HW1         39.3280    17.1760    14.3500 HW1           1 RES     
    4972 HW2         40.0400    15.7100    14.2520 HW2           1 RES     
    4973 OW          30.1640    10.3600    17.1020 OW            1 RES     
    4974 HW1         30.8710     9.7170    17.3950 HW1           1 RES     
    4975 HW2         29.3290     9.8570    16.8770 HW2           1 RES     
    4976 OW          16.6630    26.2610     8.2710 OW            1 RES     
    4977 HW1         17.4430    25.6400     8.2090 HW1           1 RES     
    4978 HW2         16.9120    27.1510     7.8900 HW2           1 RES     
    4979 OW          24.7510    24.3870     5.2910 OW            1 RES     
    4980 HW1         24.6540    25.1760     4.6850 HW1           1 RES     
    4981 HW2         25.6960    24.0610     5.2650 HW2           1 RES     
    4982 OW          20.4260    40.5960    13.1920 OW            1 RES     
    4983 HW1         20.1130    41.4430    12.7640 HW1           1 RES     
    4984 HW2         20.0330    40.5210    14.1090 HW2           1 RES     
    4985 OW           1.2220    -3.6050    16.3800 OW            1 RES     
    4986 HW1          1.0280    -4.3170    15.7050 HW1           1 RES     
    4987 HW2          1.5130    -2.7710    15.9110 HW2           1 RES     
    4988 OW           6.5690     8.9340    16.4580 OW            1 RES     
    4989 HW1          7.1050     8.1790    16.8340 HW1           1 RES     
    4990 HW2          6.9890     9.8040    16.7180 HW2           1 RES     
    4991 OW           6.1230    12.5650     5.7220 OW            1 RES     
    4992 HW1          5.2610    13.0460     5.8810 HW1           1 RES     
    4993 HW2          6.8440    13.2300     5.5260 HW2           1 RES     
    4994 OW          32.4490     9.5160     3.1090 OW            1 RES     
    4995 HW1         32.5190    10.4610     3.4270 HW1           1 RES     
    4996 HW2         31.5500     9.1490     3.3500 HW2           1 RES     
    4997 OW          12.9120    28.9490    11.9080 OW            1 RES     
    4998 HW1         11.9370    28.7490    11.9980 HW1           1 RES     
    4999 HW2         13.0600    29.9340    11.9980 HW2           1 RES     
    5000 OW          16.0220    36.7930     7.2410 OW            1 RES     
    5001 HW1         15.3180    37.4940     7.3480 HW1           1 RES     
    5002 HW2         16.6470    37.0560     6.5060 HW2           1 RES     
    5003 OW          25.7030    -1.7410     8.9920 OW            1 RES     
    5004 HW1         26.3640    -1.4160     9.6670 HW1           1 RES     
    5005 HW2         25.3170    -2.6120     9.2950 HW2           1 RES     
    5006 OW          35.1290    19.9340    11.3180 OW            1 RES     
    5007 HW1         35.4470    20.6020    10.6450 HW1           1 RES     
    5008 HW2         34.1830    20.1380    11.5690 HW2           1 RES     
    5009 OW          29.0220    32.9440    16.2770 OW            1 RES     
    5010 HW1         29.5370    33.1370    17.1110 HW1           1 RES     
    5011 HW2         29.1510    31.9860    16.0200 HW2           1 RES     
    5012 OW          15.3350    12.7390    11.6320 OW            1 RES     
    5013 HW1         15.2980    11.9820    12.2830 HW1           1 RES     
    5014 HW2         14.4530    12.8220    11.1670 HW2           1 RES     
    5015 OW           4.6180    11.1690     4.9300 OW            1 RES     
    5016 HW1          5.3640    10.5400     5.1440 HW1           1 RES     
    5017 HW2          4.6090    11.3530     3.9470 HW2           1 RES     
    5018 OW          25.1190    11.7690    15.9970 OW            1 RES     
    5019 HW1         24.2660    11.3770    15.6530 HW1           1 RES     
    5020 HW2         25.1980    12.7180    15.6890 HW2           1 RES     
    5021 OW          -3.8690     1.9670    17.3960 OW            1 RES     
    5022 HW1         -4.6840     2.5460    17.3890 HW1           1 RES     
    5023 HW2         -4.1420     1.0050    17.3810 HW2           1 RES     
    5024 OW          39.3210    35.3270     3.2210 OW            1 RES     
    5025 HW1         38.8930    34.4240     3.2520 HW1           1 RES     
    5026 HW2         38.6120    36.0320     3.1910 HW2           1 RES     
    5027 OW          42.3060    13.4040     1.7940 OW            1 RES     
    5028 HW1         41.5390    14.0440     1.8010 HW1           1 RES     
    5029 HW2         43.1660    13.9140     1.7870 HW2           1 RES     
    5030 OW           2.9790    42.5400     3.3990 OW            1 RES     
    5031 HW1          2.1960    41.9280     3.5020 HW1           1 RES     
    5032 HW2          3.5670    42.4680     4.2050 HW2           1 RES     
    5033 OW          36.7780     4.0470    16.7200 OW            1 RES     
    5034 HW1         37.2890     4.9050    16.7170 HW1           1 RES     
    5035 HW2         35.9700     4.1410    17.3020 HW2           1 RES     
    5036 OW          32.3360     5.1310     5.0550 OW            1 RES     
    5037 HW1         31.8680     4.7920     4.2390 HW1           1 RES     
    5038 HW2         32.1990     6.1190     5.1310 HW2           1 RES     
    5039 OW          38.0860    33.3800    12.3860 OW            1 RES     
    5040 HW1         38.2030    32.4050    12.1990 HW1           1 RES     
    5041 HW2         37.3300    33.7370    11.8370 HW2           1 RES     
    5042 OW          -4.5950    10.4900     1.7880 OW            1 RES     
    5043 HW1         -3.6010    10.3860     1.7880 HW1           1 RES     
    5044 HW2         -4.8290    11.4620     1.7890 HW2           1 RES     
    5045 OW          -5.3500    26.7960     5.9350 OW            1 RES     
    5046 HW1         -4.4390    26.3850     5.9330 HW1           1 RES     
    5047 HW2         -6.0170    26.1310     5.5990 HW2           1 RES     
    5048 OW          40.1080    23.1800    16.5210 OW            1 RES     
    5049 HW1         40.5360    23.7690    17.2060 HW1           1 RES     
    5050 HW2         39.9740    23.6950    15.6740 HW2           1 RES     
    5051 OW          26.9630    27.1720    10.6540 OW            1 RES     
    5052 HW1         26.6460    26.3150    10.2500 HW1           1 RES     
    5053 HW2         27.9610    27.2160    10.6030 HW2           1 RES     
    5054 OW          15.6810    34.9270     9.7600 OW            1 RES     
    5055 HW1         16.0190    35.8640     9.6820 HW1           1 RES     
    5056 HW2         14.7060    34.9040     9.5380 HW2           1 RES     
    5057 OW          34.4020     1.1390     6.8730 OW            1 RES     
    5058 HW1         34.8940     2.0060     6.9410 HW1           1 RES     
    5059 HW2         35.0480     0.3810     6.9580 HW2           1 RES     
    5060 OW          39.9420    -3.7080     6.6160 OW            1 RES     
    5061 HW1         40.7760    -4.2500     6.5160 HW1           1 RES     
    5062 HW2         39.1680    -4.3170     6.7930 HW2           1 RES     
    5063 OW          44.0840     3.3110     5.5680 OW            1 RES     
    5064 HW1         44.9540     2.9080     5.2860 HW1           1 RES     
    5065 HW2         43.5180     2.6110     6.0050 HW2           1 RES     
    5066 OW          40.8850    31.5190    12.8520 OW            1 RES     
    5067 HW1         40.7320    30.5360    12.9390 HW1           1 RES     
    5068 HW2         40.2440    32.0110    13.4410 HW2           1 RES     
    5069 OW          21.9290     4.0570    17.3970 OW            1 RES     
    5070 HW1         21.5680     3.1480    17.1910 HW1           1 RES     
    5071 HW2         22.2680     4.4800    16.5560 HW2           1 RES     
    5072 OW          23.4410    35.0800     4.3970 OW            1 RES     
    5073 HW1         22.6410    35.6360     4.1750 HW1           1 RES     
    5074 HW2         23.1650    34.1240     4.4990 HW2           1 RES     
    5075 OW          20.2210    27.8840     4.8460 OW            1 RES     
    5076 HW1         19.8800    27.9680     3.9110 HW1           1 RES     
    5077 HW2         19.9930    28.7120     5.3590 HW2           1 RES     
    5078 OW          32.3570    29.9140     7.2090 OW            1 RES     
    5079 HW1         31.8180    30.6190     7.6690 HW1           1 RES     
    5080 HW2         32.6890    30.2660     6.3340 HW2           1 RES     
    5081 OW          35.4500     1.2860    14.7610 OW            1 RES     
    5082 HW1         35.1730     2.2460    14.7850 HW1           1 RES     
    5083 HW2         34.7010     0.7310    14.4000 HW2           1 RES     
    5084 OW          29.9110    30.0160    14.8750 OW            1 RES     
    5085 HW1         29.3030    29.4800    14.2910 HW1           1 RES     
    5086 HW2         30.2640    29.4370    15.6100 HW2           1 RES     
    5087 OW          23.6610    16.9350    11.7960 OW            1 RES     
    5088 HW1         23.4910    17.3910    10.9230 HW1           1 RES     
    5089 HW2         23.1480    16.0770    11.8300 HW2           1 RES     
    5090 OW          17.1500     6.4980    16.2070 OW            1 RES     
    5091 HW1         16.8800     7.4340    16.4300 HW1           1 RES     
    5092 HW2         16.4790     6.0970    15.5830 HW2           1 RES     
    5093 OW          37.7950    -3.2420     8.4290 OW            1 RES     
    5094 HW1         37.0850    -3.6890     8.9710 HW1           1 RES     
    5095 HW2         37.4560    -2.3620     8.0940 HW2           1 RES     
    5096 OW          19.2830     9.4940     5.3180 OW            1 RES     
    5097 HW1         18.2890     9.5810     5.3710 HW1           1 RES     
    5098 HW2         19.5220     8.5800     4.9890 HW2           1 RES     
    5099 OW           7.6450    17.7630     2.6620 OW            1 RES     
    5100 HW1          8.6290    17.6250     2.7730 HW1           1 RES     
    5101 HW2          7.2210    16.9090     2.3620 HW2           1 RES     
    5102 OW          44.5760    36.4640    13.6360 OW            1 RES     
    5103 HW1         43.6280    36.3870    13.3270 HW1           1 RES     
    5104 HW2         44.6130    36.3590    14.6300 HW2           1 RES     
    5105 OW          11.1820     3.5640     2.7000 OW            1 RES     
    5106 HW1         10.4750     3.2020     3.3080 HW1           1 RES     
    5107 HW2         11.8570     4.0700     3.2370 HW2           1 RES     
    5108 OW          35.1170    32.9540    13.5960 OW            1 RES     
    5109 HW1         35.6370    32.5380    12.8500 HW1           1 RES     
    5110 HW2         35.6430    32.8940    14.4440 HW2           1 RES     
    5111 OW           3.9620    31.3000     4.7300 OW            1 RES     
    5112 HW1          4.0150    30.4530     4.2010 HW1           1 RES     
    5113 HW2          4.3300    31.1430     5.6470 HW2           1 RES     
    5114 OW          26.5500    10.6260     7.5110 OW            1 RES     
    5115 HW1         25.6780    10.2740     7.8510 HW1           1 RES     
    5116 HW2         27.0890     9.8730     7.1330 HW2           1 RES     
    5117 OW          43.2580    41.4560     9.9530 OW            1 RES     
    5118 HW1         42.3750    41.3410    10.4070 HW1           1 RES     
    5119 HW2         43.5410    40.5870     9.5480 HW2           1 RES     
    5120 OW          29.2100    42.4750    13.0810 OW            1 RES     
    5121 HW1         29.7480    41.8670    13.6630 HW1           1 RES     
    5122 HW2         28.7410    41.9390    12.3800 HW2           1 RES     
    5123 OW           3.2910    26.3240     9.0800 OW            1 RES     
    5124 HW1          3.7820    25.5570     9.4920 HW1           1 RES     
    5125 HW2          3.8760    27.1350     9.0830 HW2           1 RES     
    5126 OW          -5.1790    41.4010    13.3800 OW            1 RES     
    5127 HW1         -6.0150    41.0360    13.7880 HW1           1 RES     
    5128 HW2         -4.6900    40.6680    12.9070 HW2           1 RES     
    5129 OW          -1.1140    -2.7670    11.8330 OW            1 RES     
    5130 HW1         -1.5520    -1.8700    11.7730 HW1           1 RES     
    5131 HW2         -1.5490    -3.3030    12.5570 HW2           1 RES     
    5132 OW          24.0340    23.6380    16.6230 OW            1 RES     
    5133 HW1         23.9940    22.8660    15.9910 HW1           1 RES     
    5134 HW2         23.4200    23.4700    17.3950 HW2           1 RES     
    5135 OW          15.4930     5.4270    12.3980 OW            1 RES     
    5136 HW1         15.1240     5.1990    13.2980 HW1           1 RES     
    5137 HW2         16.4490     5.1390    12.3460 HW2           1 RES     
    5138 OW          -5.1830    10.6110     3.9050 OW            1 RES     
    5139 HW1         -6.1080    10.2380     3.8390 HW1           1 RES     
    5140 HW2         -5.1820    11.3930     4.5290 HW2           1 RES     
    5141 OW          38.2680    18.7770    11.7940 OW            1 RES     
    5142 HW1         38.1590    18.3040    12.6680 HW1           1 RES     
    5143 HW2         37.7190    18.3180    11.0950 HW2           1 RES     
    5144 OW          42.0060    17.7200    14.8690 OW            1 RES     
    5145 HW1         41.1690    18.2670    14.8640 HW1           1 RES     
    5146 HW2         41.8860    16.9220    14.2770 HW2           1 RES     
    5147 OW          -5.4420    -3.2170    10.3970 OW            1 RES     
    5148 HW1         -6.0130    -2.4090    10.5390 HW1           1 RES     
    5149 HW2         -6.0220    -4.0020    10.1780 HW2           1 RES     
    5150 OW           3.0520     3.0960     7.4950 OW            1 RES     
    5151 HW1          2.0820     2.8950     7.6210 HW1           1 RES     
    5152 HW2          3.5940     2.2880     7.7260 HW2           1 RES     
    5153 OW           3.6350    11.2490    14.5940 OW            1 RES     
    5154 HW1          4.4090    10.9880    15.1700 HW1           1 RES     
    5155 HW2          2.8460    10.6760    14.8160 HW2           1 RES     
    5156 OW          44.3700    11.8330     3.1910 OW            1 RES     
    5157 HW1         43.3960    11.9070     2.9810 HW1           1 RES     
    5158 HW2         44.7600    12.7490     3.2940 HW2           1 RES     
    5159 OW           7.1310    24.6920     3.3510 OW            1 RES     
    5160 HW1          6.6630    25.5550     3.1630 HW1           1 RES     
    5161 HW2          8.0090    24.8780     3.7930 HW2           1 RES     
    5162 OW          20.7390    31.4700    12.2950 OW            1 RES     
    5163 HW1         20.8010    31.5690    13.2870 HW1           1 RES     
    5164 HW2         21.4840    30.8870    11.9700 HW2           1 RES     
    5165 OW           3.8110     8.2980    16.1380 OW            1 RES     
    5166 HW1          3.9400     9.1810    16.5890 HW1           1 RES     
    5167 HW2          4.6700     7.7850    16.1560 HW2           1 RES     
    5168 OW          27.4350    38.9160    11.4680 OW            1 RES     
    5169 HW1         27.6050    39.7520    10.9470 HW1           1 RES     
    5170 HW2         27.3160    39.1430    12.4340 HW2           1 RES     
    5171 OW          30.0390     5.2000     2.5630 OW            1 RES     
    5172 HW1         30.9610     5.5190     2.3460 HW1           1 RES     
    5173 HW2         29.9400     4.2460     2.2770 HW2           1 RES     
    5174 OW          20.0580    14.2040     5.5880 OW            1 RES     
    5175 HW1         19.4190    13.8470     6.2680 HW1           1 RES     
    5176 HW2         19.9760    15.2000     5.5430 HW2           1 RES     
    5177 OW          39.7360    14.1630    11.9890 OW            1 RES     
    5178 HW1         39.8920    13.1840    12.1150 HW1           1 RES     
    5179 HW2         39.0950    14.4910    12.6820 HW2           1 RES     
    5180 OW          -5.0530    42.8280     9.2260 OW            1 RES     
    5181 HW1         -4.2660    42.7760     9.8400 HW1           1 RES     
    5182 HW2         -5.8140    43.2760     9.6970 HW2           1 RES     
    5183 OW          26.6640    18.1360    12.4920 OW            1 RES     
    5184 HW1         26.9680    17.9540    11.5580 HW1           1 RES     
    5185 HW2         26.8150    19.1010    12.7100 HW2           1 RES     
    5186 OW          -4.8970    34.0490     2.7190 OW            1 RES     
    5187 HW1         -5.3060    33.1690     2.9560 HW1           1 RES     
    5188 HW2         -3.9330    33.9180     2.4850 HW2           1 RES     
    5189 OW           2.7460     6.2070    11.0170 OW            1 RES     
    5190 HW1          3.4240     6.3810    11.7300 HW1           1 RES     
    5191 HW2          3.1840     5.7490    10.2430 HW2           1 RES     
    5192 OW          29.8940    -3.5590     2.4610 OW            1 RES     
    5193 HW1         29.9620    -2.8180     1.7930 HW1           1 RES     
    5194 HW2         30.6090    -4.2350     2.2830 HW2           1 RES     
    5195 OW          16.6550    22.4700     1.9770 OW            1 RES     
    5196 HW1         17.5000    21.9370     1.9750 HW1           1 RES     
    5197 HW2         15.8690    21.8510     1.9790 HW2           1 RES     
    5198 OW           4.9460    11.2530     8.5470 OW            1 RES     
    5199 HW1          5.1710    10.2970     8.3650 HW1           1 RES     
    5200 HW2          5.3990    11.8370     7.8730 HW2           1 RES     
    5201 OW          -3.5780     4.5910     6.3140 OW            1 RES     
    5202 HW1         -3.0810     4.3040     7.1330 HW1           1 RES     
    5203 HW2         -3.8160     3.7870     5.7690 HW2           1 RES     
    5204 OW           5.0890    15.6800     4.0750 OW            1 RES     
    5205 HW1          5.3480    14.7500     3.8150 HW1           1 RES     
    5206 HW2          5.8830    16.2820     3.9920 HW2           1 RES     
    5207 OW           6.0470    38.9520     2.2270 OW            1 RES     
    5208 HW1          5.9210    38.0630     1.7860 HW1           1 RES     
    5209 HW2          5.1590    39.3070     2.5210 HW2           1 RES     
    5210 OW           3.6550    29.5070     7.6390 OW            1 RES     
    5211 HW1          3.0750    29.5060     8.4530 HW1           1 RES     
    5212 HW2          4.3750    28.8210     7.7410 HW2           1 RES     
    5213 OW          23.5190    35.7980    14.1960 OW            1 RES     
    5214 HW1         23.3690    35.0290    13.5760 HW1           1 RES     
    5215 HW2         24.4960    35.8810    14.3950 HW2           1 RES     
    5216 OW          32.3580    33.8720    15.5340 OW            1 RES     
    5217 HW1         31.7510    34.6610    15.6280 HW1           1 RES     
    5218 HW2         33.3080    34.1820    15.5130 HW2           1 RES     
    5219 OW          34.3780    -1.2790     4.3890 OW            1 RES     
    5220 HW1         34.4980    -1.2970     3.3970 HW1           1 RES     
    5221 HW2         33.4260    -1.4880     4.6150 HW2           1 RES     
    5222 OW          22.4390     1.5290    15.9800 OW            1 RES     
    5223 HW1         21.9360     2.0680    15.3060 HW1           1 RES     
    5224 HW2         23.2800     1.1790    15.5670 HW2           1 RES     
    5225 OW          38.4330    30.1260    11.8890 OW            1 RES     
    5226 HW1         38.3440    29.1550    12.1110 HW1           1 RES     
    5227 HW2         37.9640    30.3160    11.0260 HW2           1 RES     
    5228 OW          39.1570     2.4260    17.3100 OW            1 RES     
    5229 HW1         38.7490     3.3340    17.3970 HW1           1 RES     
    5230 HW2         40.1350     2.5160    17.1210 HW2           1 RES     
    5231 OW          22.3760     3.9180     8.6620 OW            1 RES     
    5232 HW1         21.8080     3.0960     8.6570 HW1           1 RES     
    5233 HW2         21.8290     4.7030     8.3700 HW2           1 RES     
    5234 OW          25.4210     2.5870    16.9780 OW            1 RES     
    5235 HW1         24.6530     2.1040    17.3970 HW1           1 RES     
    5236 HW2         26.2790     2.1560    17.2560 HW2           1 RES     
    5237 OW           1.6140    -2.9570     5.6750 OW            1 RES     
    5238 HW1          1.2630    -2.0310     5.8090 HW1           1 RES     
    5239 HW2          2.6010    -2.9210     5.5150 HW2           1 RES     
    5240 OW           4.3400     6.4880     8.5230 OW            1 RES     
    5241 HW1          3.5880     7.1460     8.5250 HW1           1 RES     
    5242 HW2          5.2070     6.9730     8.4060 HW2           1 RES     
    5243 OW          26.1920    39.2410    15.3410 OW            1 RES     
    5244 HW1         26.2910    38.3160    15.7070 HW1           1 RES     
    5245 HW2         25.2240    39.4920    15.3260 HW2           1 RES     
    5246 OW           3.8390    33.9810    14.1770 OW            1 RES     
    5247 HW1          3.3430    34.7490    14.5810 HW1           1 RES     
    5248 HW2          3.6490    33.1490    14.6980 HW2           1 RES     
    5249 OW           5.1360     9.2770    10.3180 OW            1 RES     
    5250 HW1          4.5230     8.6090     9.8990 HW1           1 RES     
    5251 HW2          4.6110    10.0800    10.6010 HW2           1 RES     
    5252 OW          27.6410    -3.7500    16.1190 OW            1 RES     
    5253 HW1         28.1770    -4.2250    15.4220 HW1           1 RES     
    5254 HW2         28.0920    -2.8900    16.3590 HW2           1 RES     
    5255 OW          23.7160    -2.5230    11.1430 OW            1 RES     
    5256 HW1         24.4990    -3.1250    11.2970 HW1           1 RES     
    5257 HW2         24.0410    -1.6140    10.8790 HW2           1 RES     
    5258 OW          38.7090    28.8860    14.4610 OW            1 RES     
    5259 HW1         39.0210    29.7700    14.1140 HW1           1 RES     
    5260 HW2         39.4580    28.2240    14.4090 HW2           1 RES     
    5261 OW          10.8450    36.4790    12.9000 OW            1 RES     
    5262 HW1         10.4200    35.5780    12.8210 HW1           1 RES     
    5263 HW2         10.1340    37.1830    12.9280 HW2           1 RES     
    5264 OW           3.7090    40.4590    17.3700 OW            1 RES     
    5265 HW1          3.1900    40.7320    16.5610 HW1           1 RES     
    5266 HW2          4.5770    40.9550    17.3950 HW2           1 RES     
    5267 OW          -4.0160    -3.7710    16.9390 OW            1 RES     
    5268 HW1         -3.6030    -4.3150    16.2090 HW1           1 RES     
    5269 HW2         -4.7250    -4.3100    17.3960 HW2           1 RES     
    5270 OW          45.4040    19.0860    15.0330 OW            1 RES     
    5271 HW1         44.6370    18.6490    15.5020 HW1           1 RES     
    5272 HW2         45.4010    20.0660    15.2310 HW2           1 RES     
    5273 OW           9.4590    13.9310     7.3080 OW            1 RES     
    5274 HW1          8.7320    14.5570     7.0290 HW1           1 RES     
    5275 HW2          9.5670    13.2140     6.6190 HW2           1 RES     
    5276 OW          36.6000     6.8380    14.3370 OW            1 RES     
    5277 HW1         36.1170     5.9640    14.3100 HW1           1 RES     
    5278 HW2         35.9870     7.5480    14.6850 HW2           1 RES     
    5279 OW          13.6230    19.3120     6.1030 OW            1 RES     
    5280 HW1         14.2370    19.1480     5.3320 HW1           1 RES     
    5281 HW2         13.4160    20.2890     6.1630 HW2           1 RES     
    5282 OW          40.7050    11.1560    12.4020 OW            1 RES     
    5283 HW1         39.8560    10.6350    12.4930 HW1           1 RES     
    5284 HW2         41.4520    10.5370    12.1590 HW2           1 RES     
    5285 OW           6.0960    32.6030     3.0110 OW            1 RES     
    5286 HW1          5.7720    31.6890     3.2500 HW1           1 RES     
    5287 HW2          5.6680    32.8960     2.1560 HW2           1 RES     
    5288 OW           5.6140    34.9770    17.3970 OW            1 RES     
    5289 HW1          6.0070    34.0590    17.3510 HW1           1 RES     
    5290 HW2          4.6180    34.9170    17.3290 HW2           1 RES     
    5291 OW          16.5530    43.1530    14.3540 OW            1 RES     
    5292 HW1         16.2570    43.2760    13.4070 HW1           1 RES     
    5293 HW2         16.7700    42.1890    14.5140 HW2           1 RES     
    5294 OW          25.7630    34.2420     6.2500 OW            1 RES     
    5295 HW1         25.2680    33.6880     6.9180 HW1           1 RES     
    5296 HW2         25.7780    33.7680     5.3690 HW2           1 RES     
    5297 OW          19.1230     4.8870    11.9050 OW            1 RES     
    5298 HW1         19.2130     5.8730    11.7690 HW1           1 RES     
    5299 HW2         20.0270     4.4870    12.0580 HW2           1 RES     
    5300 OW          -3.6460     8.5750    12.0020 OW            1 RES     
    5301 HW1         -4.5540     8.7820    11.6390 HW1           1 RES     
    5302 HW2         -3.0340     9.3470    11.8310 HW2           1 RES     
    5303 OW          27.3850    17.3640    14.8310 OW            1 RES     
    5304 HW1         26.7730    18.1410    14.6900 HW1           1 RES     
    5305 HW2         26.9910    16.5470    14.4080 HW2           1 RES     
    5306 OW          13.8530    13.5820     5.2750 OW            1 RES     
    5307 HW1         14.0760    14.3600     4.6880 HW1           1 RES     
    5308 HW2         12.9120    13.2920     5.1020 HW2           1 RES     
    5309 OW          22.7880     5.7660    11.8850 OW            1 RES     
    5310 HW1         22.0470     5.3030    12.3690 HW1           1 RES     
    5311 HW2         22.4240     6.2230    11.0730 HW2           1 RES     
    5312 OW          23.2460    -0.9550     7.5700 OW            1 RES     
    5313 HW1         22.3670    -0.4980     7.4350 HW1           1 RES     
    5314 HW2         23.1070    -1.9460     7.5950 HW2           1 RES     
    5315 OW           8.5710    19.8950     2.2780 OW            1 RES     
    5316 HW1          7.7000    19.7860     1.8000 HW1           1 RES     
    5317 HW2          8.7160    20.8610     2.4920 HW2           1 RES     
    5318 OW           0.4370    13.6830     1.7940 OW            1 RES     
    5319 HW1         -0.5560    13.8000     1.7870 HW1           1 RES     
    5320 HW2          0.8790    14.5810     1.7950 HW2           1 RES     
    5321 OW          -2.2260    22.5100     7.7300 OW            1 RES     
    5322 HW1         -2.3580    23.4990     7.6650 HW1           1 RES     
    5323 HW2         -1.6040    22.2080     7.0080 HW2           1 RES     
    5324 OW          42.0430    16.5930     1.9040 OW            1 RES     
    5325 HW1         41.1070    16.2580     1.7950 HW1           1 RES     
    5326 HW2         42.0520    17.3520     2.5560 HW2           1 RES     
    5327 OW          40.0120    34.7880     6.1770 OW            1 RES     
    5328 HW1         39.9710    35.4880     5.4650 HW1           1 RES     
    5329 HW2         39.5470    35.1210     6.9980 HW2           1 RES     
    5330 OW          11.3720    -0.1100    12.7650 OW            1 RES     
    5331 HW1         12.0650     0.4220    13.2520 HW1           1 RES     
    5332 HW2         11.5800    -1.0850    12.8470 HW2           1 RES     
    5333 OW           6.5790    32.9470    11.0060 OW            1 RES     
    5334 HW1          7.5130    33.2980    10.9530 HW1           1 RES     
    5335 HW2          6.5850    31.9570    10.8620 HW2           1 RES     
    5336 OW          34.9020    23.2980    11.0090 OW            1 RES     
    5337 HW1         35.8050    23.3130    10.5800 HW1           1 RES     
    5338 HW2         34.2140    23.5980    10.3480 HW2           1 RES     
    5339 OW          21.8390    -0.4420    15.2010 OW            1 RES     
    5340 HW1         21.6530    -1.4210    15.1280 HW1           1 RES     
    5341 HW2         20.9880     0.0690    15.0860 HW2           1 RES     
    5342 OW           6.4040    13.1200    14.4900 OW            1 RES     
    5343 HW1          6.2620    12.1800    14.7990 HW1           1 RES     
    5344 HW2          5.5250    13.5950    14.4530 HW2           1 RES     
    5345 OW          21.2670    23.7400    11.4370 OW            1 RES     
    5346 HW1         20.3350    23.4220    11.6050 HW1           1 RES     
    5347 HW2         21.5540    23.4630    10.5190 HW2           1 RES     
    5348 OW          40.3050    22.0390    12.7200 OW            1 RES     
    5349 HW1         39.4670    21.4960    12.6700 HW1           1 RES     
    5350 HW2         41.0270    21.5880    12.1960 HW2           1 RES     
    5351 OW          -5.0440    36.3690    15.5190 OW            1 RES     
    5352 HW1         -5.2150    37.3540    15.5050 HW1           1 RES     
    5353 HW2         -4.0610    36.2000    15.4350 HW2           1 RES     
    5354 OW           3.3300    17.9950     3.8400 OW            1 RES     
    5355 HW1          3.4970    17.1670     4.3750 HW1           1 RES     
    5356 HW2          3.9830    18.0400     3.0830 HW2           1 RES     
    5357 OW          13.7710    35.1030    12.0410 OW            1 RES     
    5358 HW1         12.8080    34.9160    11.8500 HW1           1 RES     
    5359 HW2         14.0960    35.8320    11.4380 HW2           1 RES     
    5360 OW          26.1610    11.8130     2.1010 OW            1 RES     
    5361 HW1         25.2120    11.8050     1.7870 HW1           1 RES     
    5362 HW2         26.5460    12.7280     1.9780 HW2           1 RES     
    5363 OW          16.4490    35.3350    12.8140 OW            1 RES     
    5364 HW1         17.1660    34.7290    13.1550 HW1           1 RES     
    5365 HW2         16.1340    35.0120    11.9220 HW2           1 RES     
    5366 OW           5.9320    16.7960    17.2140 OW            1 RES     
    5367 HW1          6.1560    16.9400    16.2500 HW1           1 RES     
    5368 HW2          4.9930    17.0940    17.3860 HW2           1 RES     
    5369 OW           7.5470    15.3040    17.3500 OW            1 RES     
    5370 HW1          8.5380    15.3180    17.2190 HW1           1 RES     
    5371 HW2          7.2300    14.3560    17.3960 HW2           1 RES     
    5372 OW          -1.2960    38.0550    11.5300 OW            1 RES     
    5373 HW1         -0.6840    37.3050    11.7790 HW1           1 RES     
    5374 HW2         -0.7740    38.9060    11.4700 HW2           1 RES     
    5375 OW           1.1210    36.4260     2.8750 OW            1 RES     
    5376 HW1          1.8860    35.7840     2.8900 HW1           1 RES     
    5377 HW2          0.2590    35.9190     2.9000 HW2           1 RES     
    5378 OW          21.5960     8.4860    11.4940 OW            1 RES     
    5379 HW1         20.6640     8.3270    11.1710 HW1           1 RES     
    5380 HW2         22.2360     8.3880    10.7310 HW2           1 RES     
    5381 OW           1.8190    23.0000    16.8290 OW            1 RES     
    5382 HW1          1.1890    22.3530    17.2560 HW1           1 RES     
    5383 HW2          1.8920    23.8200    17.3970 HW2           1 RES     
    5384 OW          17.8070     7.6350     3.9870 OW            1 RES     
    5385 HW1         17.4040     8.4550     3.5810 HW1           1 RES     
    5386 HW2         17.2680     6.8340     3.7250 HW2           1 RES     
    5387 OW          20.7490     1.0830     8.5720 OW            1 RES     
    5388 HW1         20.7310     1.4310     7.6350 HW1           1 RES     
    5389 HW2         20.5040     0.1130     8.5720 HW2           1 RES     
    5390 OW          40.3400    -2.6950    17.3520 OW            1 RES     
    5391 HW1         39.3460    -2.7980    17.3610 HW1           1 RES     
    5392 HW2         40.7700    -3.5970    17.3960 HW2           1 RES     
    5393 OW          43.0340    33.7370    12.3910 OW            1 RES     
    5394 HW1         43.3510    34.2080    13.2150 HW1           1 RES     
    5395 HW2         43.7440    33.7830    11.6880 HW2           1 RES     
    5396 OW          44.1580    34.6880     9.0470 OW            1 RES     
    5397 HW1         45.0660    34.7310     8.6330 HW1           1 RES     
    5398 HW2         43.6450    35.5140     8.8120 HW2           1 RES     
    5399 OW          33.7300     8.1370     6.6350 OW            1 RES     
    5400 HW1         34.6950     8.1200     6.8940 HW1           1 RES     
    5401 HW2         33.4510     9.0800     6.4510 HW2           1 RES     
    5402 OW          15.5530    29.6230     5.2570 OW            1 RES     
    5403 HW1         15.5760    29.0590     6.0820 HW1           1 RES     
    5404 HW2         14.8040    29.3210     4.6670 HW2           1 RES     
    5405 OW          29.6450    21.6630     3.7100 OW            1 RES     
    5406 HW1         29.4470    20.8390     3.1800 HW1           1 RES     
    5407 HW2         30.1380    22.3180     3.1370 HW2           1 RES     
    5408 OW           1.3570    41.5870     5.6320 OW            1 RES     
    5409 HW1          0.5890    41.5830     4.9930 HW1           1 RES     
    5410 HW2          1.0970    41.1070     6.4700 HW2           1 RES     
    5411 OW          19.8890    32.6460    10.6390 OW            1 RES     
    5412 HW1         19.4130    32.3750     9.8030 HW1           1 RES     
    5413 HW2         20.8610    32.7790    10.4430 HW2           1 RES     
    5414 OW           3.8500    37.5760    14.8770 OW            1 RES     
    5415 HW1          4.5520    38.2640    14.7000 HW1           1 RES     
    5416 HW2          4.2840    36.6910    15.0460 HW2           1 RES     
    5417 OW          -6.1050    38.0990     5.2140 OW            1 RES     
    5418 HW1         -5.5030    38.1160     4.4170 HW1           1 RES     
    5419 HW2         -6.0850    38.9910     5.6660 HW2           1 RES     
    5420 OW          12.9030     2.8300     8.7660 OW            1 RES     
    5421 HW1         13.8670     2.9270     8.5190 HW1           1 RES     
    5422 HW2         12.6900     3.4460     9.5250 HW2           1 RES     
    5423 OW          45.1220    10.2580    11.7930 OW            1 RES     
    5424 HW1         44.1320    10.3690    11.8720 HW1           1 RES     
    5425 HW2         45.3990    10.3980    10.8420 HW2           1 RES     
    5426 OW          -1.3710    29.8850    10.9530 OW            1 RES     
    5427 HW1         -1.3390    30.6780    11.5600 HW1           1 RES     
    5428 HW2         -2.2060    29.3620    11.1290 HW2           1 RES     
    5429 OW          22.1560     7.5410     4.7060 OW            1 RES     
    5430 HW1         21.5190     6.7750     4.7820 HW1           1 RES     
    5431 HW2         22.7960     7.3700     3.9570 HW2           1 RES     
    5432 OW           7.8890    14.2210     3.6740 OW            1 RES     
    5433 HW1          7.4630    14.8150     2.9920 HW1           1 RES     
    5434 HW2          7.6850    13.2660     3.4580 HW2           1 RES     
    5435 OW           0.5900    43.0660    10.7970 OW            1 RES     
    5436 HW1         -0.0810    42.5130    10.3040 HW1           1 RES     
    5437 HW2          1.4180    42.5270    10.9530 HW2           1 RES     
    5438 OW          30.0820     8.6970     7.7670 OW            1 RES     
    5439 HW1         30.7130     9.4710     7.8010 HW1           1 RES     
    5440 HW2         29.1430     9.0350     7.7000 HW2           1 RES     
    5441 OW           4.7680    22.1570    16.5270 OW            1 RES     
    5442 HW1          5.2430    21.6720    17.2610 HW1           1 RES     
    5443 HW2          3.7820    22.0200    16.6200 HW2           1 RES     
    5444 OW          20.8370    28.4420    13.9620 OW            1 RES     
    5445 HW1         20.6930    29.2250    13.3570 HW1           1 RES     
    5446 HW2         21.5820    28.6430    14.5970 HW2           1 RES     
    5447 OW          15.6150    -3.7060    11.9670 OW            1 RES     
    5448 HW1         15.4700    -4.0470    11.0390 HW1           1 RES     
    5449 HW2         16.2420    -4.3150    12.4530 HW2           1 RES     
    5450 OW          28.2180    21.5350    14.2760 OW            1 RES     
    5451 HW1         27.5830    22.3050    14.2320 HW1           1 RES     
    5452 HW2         27.7790    20.7650    14.7390 HW2           1 RES     
    5453 OW           4.2210     1.5810    12.7910 OW            1 RES     
    5454 HW1          4.0920     2.0710    11.9300 HW1           1 RES     
    5455 HW2          3.6370     0.7680    12.8030 HW2           1 RES     
    5456 OW          14.1440    -1.9200    12.4170 OW            1 RES     
    5457 HW1         15.0770    -1.7050    12.7060 HW1           1 RES     
    5458 HW2         13.5530    -1.9850    13.2210 HW2           1 RES     
    5459 OW          23.9100    31.3070    10.2060 OW            1 RES     
    5460 HW1         24.5820    31.9530    10.5680 HW1           1 RES     
    5461 HW2         23.6150    31.6060     9.2990 HW2           1 RES     
    5462 OW          24.1700    23.8640    13.7500 OW            1 RES     
    5463 HW1         23.9200    24.5820    14.4000 HW1           1 RES     
    5464 HW2         25.0420    23.4580    14.0220 HW2           1 RES     
    5465 OW          16.5960    34.2740     4.1290 OW            1 RES     
    5466 HW1         16.5410    33.8010     5.0070 HW1           1 RES     
    5467 HW2         15.7180    34.7090     3.9280 HW2           1 RES     
    5468 OW          12.3100    37.8870    17.3970 OW            1 RES     
    5469 HW1         12.8690    37.0600    17.3400 HW1           1 RES     
    5470 HW2         11.9720    38.1250    16.4860 HW2           1 RES     
    5471 OW          43.4440     6.2460     4.4890 OW            1 RES     
    5472 HW1         43.4340     5.7860     5.3760 HW1           1 RES     
    5473 HW2         44.2200     6.8760     4.4480 HW2           1 RES     
    5474 OW           5.5640     4.6420    17.3970 OW            1 RES     
    5475 HW1          5.7020     3.6530    17.3640 HW1           1 RES     
    5476 HW2          6.4430     5.1060    17.2860 HW2           1 RES     
    5477 OW          44.2220    27.0700    16.9450 OW            1 RES     
    5478 HW1         44.2820    26.7110    16.0150 HW1           1 RES     
    5479 HW2         43.2740    27.0250    17.2600 HW2           1 RES     
    5480 OW           5.0980    38.4810    10.0010 OW            1 RES     
    5481 HW1          4.5770    37.6320     9.9260 HW1           1 RES     
    5482 HW2          6.0760    38.2720    10.0170 HW2           1 RES     
    5483 OW          10.8660     6.1860     2.3400 OW            1 RES     
    5484 HW1         11.6150     5.7530     1.8400 HW1           1 RES     
    5485 HW2         10.4770     6.9220     1.7860 HW2           1 RES     
    5486 OW          23.1790     0.7600    12.7310 OW            1 RES     
    5487 HW1         23.0460     0.3400    11.8340 HW1           1 RES     
    5488 HW2         22.5170     1.5000    12.8540 HW2           1 RES     
    5489 OW           2.0580    16.0410    16.7040 OW            1 RES     
    5490 HW1          2.9340    16.4320    16.9840 HW1           1 RES     
    5491 HW2          2.0560    15.9030    15.7130 HW2           1 RES     
    5492 OW          29.4980     8.3130    13.7780 OW            1 RES     
    5493 HW1         29.6500     7.3260    13.8270 HW1           1 RES     
    5494 HW2         28.5890     8.4920    13.4020 HW2           1 RES     
    5495 OW          10.0570    30.3750     6.4730 OW            1 RES     
    5496 HW1          9.6660    29.4650     6.6090 HW1           1 RES     
    5497 HW2          9.5240    31.0480     6.9860 HW2           1 RES     
    5498 OW          13.6900     0.3610     8.4830 OW            1 RES     
    5499 HW1         13.8690     0.6490     7.5430 HW1           1 RES     
    5500 HW2         12.7640     0.6350     8.7450 HW2           1 RES     
    5501 OW          41.9070    -1.1470     8.6600 OW            1 RES     
    5502 HW1         42.8960    -1.1330     8.5190 HW1           1 RES     
    5503 HW2         41.5770    -0.2130     8.8020 HW2           1 RES     
    5504 OW          -2.3970    21.5740     3.6130 OW            1 RES     
    5505 HW1         -2.1630    22.5000     3.3200 HW1           1 RES     
    5506 HW2         -3.3530    21.5470     3.9050 HW2           1 RES     
    5507 OW          30.5830    35.0220    10.1410 OW            1 RES     
    5508 HW1         31.3460    35.6120    10.4000 HW1           1 RES     
    5509 HW2         30.7270    34.1060    10.5150 HW2           1 RES     
    5510 OW          12.1260    40.7350     4.4720 OW            1 RES     
    5511 HW1         11.2990    40.2390     4.7370 HW1           1 RES     
    5512 HW2         12.3690    41.3850     5.1920 HW2           1 RES     
    5513 OW          27.1160    19.6380     8.6140 OW            1 RES     
    5514 HW1         27.2760    19.4160     9.5750 HW1           1 RES     
    5515 HW2         26.2330    20.0990     8.5200 HW2           1 RES     
    5516 OW           0.6680    13.3700     4.3580 OW            1 RES     
    5517 HW1          0.1600    12.6410     3.9020 HW1           1 RES     
    5518 HW2          0.9030    13.0830     5.2870 HW2           1 RES     
    5519 OW          26.0770    20.4710     5.0550 OW            1 RES     
    5520 HW1         25.2520    21.0350     5.0700 HW1           1 RES     
    5521 HW2         26.2280    20.0760     5.9610 HW2           1 RES     
    5522 OW          39.9300    27.6060    11.9550 OW            1 RES     
    5523 HW1         40.7260    27.0020    11.9690 HW1           1 RES     
    5524 HW2         39.0940    27.0580    11.9850 HW2           1 RES     
    5525 OW          -5.6520    32.7920    10.9590 OW            1 RES     
    5526 HW1         -5.6020    33.7760    10.7890 HW1           1 RES     
    5527 HW2         -5.5700    32.2990    10.0930 HW2           1 RES     
    5528 OW           0.3760    15.6160     8.7920 OW            1 RES     
    5529 HW1          1.3450    15.8460     8.7110 HW1           1 RES     
    5530 HW2          0.2710    14.6220     8.8430 HW2           1 RES     
    5531 OW           4.1170    -2.0150    11.7470 OW            1 RES     
    5532 HW1          3.5170    -1.3340    12.1660 HW1           1 RES     
    5533 HW2          4.9370    -1.5650    11.3940 HW2           1 RES     
    5534 OW          44.8740     6.4870     7.9100 OW            1 RES     
    5535 HW1         45.1420     6.3810     6.9530 HW1           1 RES     
    5536 HW2         43.8980     6.2890     8.0080 HW2           1 RES     
    5537 OW          40.3550    20.7040    15.7920 OW            1 RES     
    5538 HW1         39.4830    21.1260    16.0400 HW1           1 RES     
    5539 HW2         41.1070    21.2540    16.1570 HW2           1 RES     
    5540 OW          35.1220    30.3760    11.5660 OW            1 RES     
    5541 HW1         34.9900    30.4360    12.5550 HW1           1 RES     
    5542 HW2         35.8470    31.0050    11.2860 HW2           1 RES     
    5543 OW           0.3520    11.8690     7.3310 OW            1 RES     
    5544 HW1          0.5170    12.4530     8.1250 HW1           1 RES     
    5545 HW2         -0.1030    11.0280     7.6240 HW2           1 RES     
    5546 OW          -1.8560    32.6800     2.2550 OW            1 RES     
    5547 HW1         -1.3240    32.4410     3.0670 HW1           1 RES     
    5548 HW2         -2.1430    31.8450     1.7860 HW2           1 RES     
    5549 OW          34.3680    28.6680    15.4920 OW            1 RES     
    5550 HW1         34.7490    28.8330    16.4010 HW1           1 RES     
    5551 HW2         34.6830    29.3800    14.8640 HW2           1 RES     
    5552 OW          22.7940    21.2540    10.1580 OW            1 RES     
    5553 HW1         21.9760    21.3140    10.7290 HW1           1 RES     
    5554 HW2         22.7370    21.9260     9.4200 HW2           1 RES     
    5555 OW          25.9960    13.5310     4.2810 OW            1 RES     
    5556 HW1         26.2790    12.5800     4.1600 HW1           1 RES     
    5557 HW2         26.1760    13.8150     5.2230 HW2           1 RES     
    5558 OW          34.1660     8.4260    16.9720 OW            1 RES     
    5559 HW1         33.3770     7.9390    17.3460 HW1           1 RES     
    5560 HW2         35.0040     8.0750    17.3900 HW2           1 RES     
    5561 OW          -3.1920    33.6340    15.3420 OW            1 RES     
    5562 HW1         -4.0800    33.8160    14.9220 HW1           1 RES     
    5563 HW2         -3.2680    32.8480    15.9570 HW2           1 RES     
    5564 OW          44.3490    12.0520     6.2250 OW            1 RES     
    5565 HW1         44.2290    12.6400     5.4260 HW1           1 RES     
    5566 HW2         44.3210    11.0930     5.9420 HW2           1 RES     
    5567 OW          16.1720    -4.3130     2.8130 OW            1 RES     
    5568 HW1         16.1040    -4.0510     1.8510 HW1           1 RES     
    5569 HW2         16.9760    -3.8810     3.2220 HW2           1 RES     
    5570 OW          19.6550    -0.2440     5.7710 OW            1 RES     
    5571 HW1         18.9870    -0.9770     5.8940 HW1           1 RES     
    5572 HW2         19.1910     0.5790     5.4420 HW2           1 RES     
    5573 OW          -1.2890    31.4320    16.8740 OW            1 RES     
    5574 HW1         -0.3140    31.3980    17.0890 HW1           1 RES     
    5575 HW2         -1.7200    32.1690    17.3960 HW2           1 RES     
    5576 OW          38.3790     0.2840     4.1210 OW            1 RES     
    5577 HW1         39.1310     0.6720     3.5890 HW1           1 RES     
    5578 HW2         38.3630    -0.7090     4.0010 HW2           1 RES     
    5579 OW           4.3700    12.4440    11.5860 OW            1 RES     
    5580 HW1          5.0150    13.1850    11.7690 HW1           1 RES     
    5581 HW2          3.6900    12.4050    12.3180 HW2           1 RES     
    5582 OW          -4.6370     0.5220    10.5690 OW            1 RES     
    5583 HW1         -3.7100     0.4050    10.9240 HW1           1 RES     
    5584 HW2         -4.5990     0.9790     9.6810 HW2           1 RES     
    5585 OW           3.3770    27.5930    15.7990 OW            1 RES     
    5586 HW1          2.3860    27.5390    15.6820 HW1           1 RES     
    5587 HW2          3.8050    26.7800    15.4040 HW2           1 RES     
    5588 OW          37.0540    35.1810    14.2590 OW            1 RES     
    5589 HW1         37.2060    36.1010    13.8990 HW1           1 RES     
    5590 HW2         37.9180    34.8080    14.5980 HW2           1 RES     
    5591 OW          38.0500    20.2730     5.6260 OW            1 RES     
    5592 HW1         37.8710    19.3000     5.7710 HW1           1 RES     
    5593 HW2         38.7740    20.5750     6.2460 HW2           1 RES     
    5594 OW          -2.7320    37.7610     5.9780 OW            1 RES     
    5595 HW1         -3.1310    36.8610     5.8090 HW1           1 RES     
    5596 HW2         -1.7590    37.6620     6.1850 HW2           1 RES     
    5597 OW          30.6020    42.1370     7.0840 OW            1 RES     
    5598 HW1         29.6050    42.1430     7.1440 HW1           1 RES     
    5599 HW2         30.9210    41.2030     6.9190 HW2           1 RES     
    5600 OW          20.6440    34.7370     3.7820 OW            1 RES     
    5601 HW1         20.3480    35.3670     4.4990 HW1           1 RES     
    5602 HW2         20.9970    33.8990     4.1990 HW2           1 RES     
    5603 OW          37.1530    15.1460     4.0180 OW            1 RES     
    5604 HW1         36.4890    14.5460     4.4630 HW1           1 RES     
    5605 HW2         37.7070    14.6140     3.3770 HW2           1 RES     
    5606 OW          16.4370    28.6070     9.4700 OW            1 RES     
    5607 HW1         16.6940    27.7980     9.9960 HW1           1 RES     
    5608 HW2         15.4450    28.6240     9.3450 HW2           1 RES     
    5609 OW           3.0070    42.8470    17.1510 OW            1 RES     
    5610 HW1          2.9530    43.2720    16.2480 HW1           1 RES     
    5611 HW2          2.1160    42.4630    17.3920 HW2           1 RES     
    5612 OW          35.0350    26.5000    11.3850 OW            1 RES     
    5613 HW1         36.0320    26.4930    11.4590 HW1           1 RES     
    5614 HW2         34.6790    25.5840    11.5700 HW2           1 RES     
    5615 OW           5.8040     5.7390     4.1390 OW            1 RES     
    5616 HW1          6.5470     5.1290     4.4120 HW1           1 RES     
    5617 HW2          5.0780     5.7090     4.8270 HW2           1 RES     
    5618 OW          35.1660     8.8690     3.8830 OW            1 RES     
    5619 HW1         34.5910     9.0180     3.0790 HW1           1 RES     
    5620 HW2         34.7410     9.2950     4.6810 HW2           1 RES     
    5621 OW          41.0890     8.1720     8.6370 OW            1 RES     
    5622 HW1         40.9580     9.1190     8.3470 HW1           1 RES     
    5623 HW2         42.0650     7.9530     8.6290 HW2           1 RES     
    5624 OW          -5.8090    28.2260    13.9700 OW            1 RES     
    5625 HW1         -4.9630    27.7800    14.2620 HW1           1 RES     
    5626 HW2         -6.1080    27.8370    13.0990 HW2           1 RES     
    5627 OW          28.8200     4.7690     8.0740 OW            1 RES     
    5628 HW1         28.2990     3.9210     7.9840 HW1           1 RES     
    5629 HW2         28.1940     5.5490     8.0560 HW2           1 RES     
    5630 OW          -5.6250    17.5100    12.3730 OW            1 RES     
    5631 HW1         -5.5350    18.5020    12.2820 HW1           1 RES     
    5632 HW2         -4.7180    17.0990    12.4590 HW2           1 RES     
    5633 OW          12.6730     9.8980     4.7180 OW            1 RES     
    5634 HW1         12.0730     9.6240     3.9670 HW1           1 RES     
    5635 HW2         13.2630     9.1310     4.9720 HW2           1 RES     
    5636 OW          21.9710    36.9810     8.4240 OW            1 RES     
    5637 HW1         22.3370    36.0610     8.5580 HW1           1 RES     
    5638 HW2         22.7240    37.6230     8.2790 HW2           1 RES     
    5639 OW          45.0900    42.7600    11.5350 OW            1 RES     
    5640 HW1         45.0470    41.8140    11.2130 HW1           1 RES     
    5641 HW2         44.1640    43.0910    11.7200 HW2           1 RES     
    5642 OW          17.1980    22.7140     4.7460 OW            1 RES     
    5643 HW1         17.4050    23.5400     4.2240 HW1           1 RES     
    5644 HW2         17.4100    21.9070     4.1930 HW2           1 RES     
    5645 OW          18.9530     1.3520    12.7070 OW            1 RES     
    5646 HW1         19.6720     1.8130    13.2250 HW1           1 RES     
    5647 HW2         18.4190     0.7700    13.3210 HW2           1 RES     
    5648 OW           3.9860     3.8770     9.3280 OW            1 RES     
    5649 HW1          4.8450     3.7710     8.8290 HW1           1 RES     
    5650 HW2          3.8340     3.0750     9.9070 HW2           1 RES     
    5651 OW          21.0800    34.8180     6.5500 OW            1 RES     
    5652 HW1         22.0670    34.8840     6.6920 HW1           1 RES     
    5653 HW2         20.8280    33.8630     6.3960 HW2           1 RES     
    5654 OW          13.6170    26.6610    10.3920 OW            1 RES     
    5655 HW1         14.5640    26.8050    10.6750 HW1           1 RES     
    5656 HW2         13.2990    27.4550     9.8720 HW2           1 RES     
    5657 OW           4.7160    28.0400     3.2160 OW            1 RES     
    5658 HW1          5.7110    28.0680     3.1250 HW1           1 RES     
    5659 HW2          4.3080    28.7530     2.6460 HW2           1 RES     
    5660 OW          38.3180    26.1740     6.9120 OW            1 RES     
    5661 HW1         37.4970    25.7620     6.5170 HW1           1 RES     
    5662 HW2         38.1890    27.1620     6.9960 HW2           1 RES     
    5663 OW          -1.3550     4.4120     3.1160 OW            1 RES     
    5664 HW1         -1.1530     3.9250     3.9650 HW1           1 RES     
    5665 HW2         -0.6890     4.1530     2.4160 HW2           1 RES     
    5666 OW          44.9780    -1.2870    12.8600 OW            1 RES     
    5667 HW1         43.9790    -1.3240    12.8620 HW1           1 RES     
    5668 HW2         45.3460    -2.2170    12.8880 HW2           1 RES     
    5669 OW          29.9950    15.5570    14.5640 OW            1 RES     
    5670 HW1         30.1780    14.9650    15.3480 HW1           1 RES     
    5671 HW2         29.1040    15.9980    14.6800 HW2           1 RES     
    5672 OW          33.0200    30.6670     9.8120 OW            1 RES     
    5673 HW1         33.6090    30.0220     9.3260 HW1           1 RES     
    5674 HW2         32.5610    30.1980    10.5670 HW2           1 RES     
    5675 OW          38.2070    11.6210     2.8990 OW            1 RES     
    5676 HW1         38.3870    12.6000     2.8120 HW1           1 RES     
    5677 HW2         37.3360    11.4820     3.3690 HW2           1 RES     
    5678 OW           8.7710    36.0900     6.1900 OW            1 RES     
    5679 HW1          9.3910    35.7590     6.9010 HW1           1 RES     
    5680 HW2          7.8540    36.2030     6.5730 HW2           1 RES     
    5681 OW          28.7100    22.1100     9.2040 OW            1 RES     
    5682 HW1         29.7000    21.9740     9.1840 HW1           1 RES     
    5683 HW2         28.4580    22.8280     8.5540 HW2           1 RES     
    5684 OW          11.2970    25.0080    15.3980 OW            1 RES     
    5685 HW1         11.8680    25.6560    14.8960 HW1           1 RES     
    5686 HW2         10.3400    25.2940    15.3440 HW2           1 RES     
    5687 OW          24.7850    19.8490    16.4330 OW            1 RES     
    5688 HW1         24.5500    20.3090    17.2880 HW1           1 RES     
    5689 HW2         25.7800    19.8040    16.3400 HW2           1 RES     
    5690 OW          29.5870    38.5570    13.4390 OW            1 RES     
    5691 HW1         29.3520    39.4960    13.1890 HW1           1 RES     
    5692 HW2         29.0990    37.9200    12.8420 HW2           1 RES     
    5693 OW           2.8180    14.1570     5.4950 OW            1 RES     
    5694 HW1          3.4150    13.6730     4.8560 HW1           1 RES     
    5695 HW2          3.3740    14.6330     6.1760 HW2           1 RES     
    5696 OW          37.7360     0.2640    11.2170 OW            1 RES     
    5697 HW1         37.8050    -0.4930    10.5690 HW1           1 RES     
    5698 HW2         37.1070     0.9540    10.8590 HW2           1 RES     
    5699 OW          17.1740    -2.8150    10.3900 OW            1 RES     
    5700 HW1         16.4430    -2.1440    10.5130 HW1           1 RES     
    5701 HW2         16.9790    -3.3770     9.5850 HW2           1 RES     
    5702 OW           2.4780    17.4540    13.6250 OW            1 RES     
    5703 HW1          2.6930    18.3440    13.2240 HW1           1 RES     
    5704 HW2          1.5460    17.1910    13.3750 HW2           1 RES     
    5705 OW          31.9930    37.5850     4.3210 OW            1 RES     
    5706 HW1         32.7630    37.9890     3.8290 HW1           1 RES     
    5707 HW2         31.8200    36.6640     3.9710 HW2           1 RES     
    5708 OW          29.1000    14.3110     7.8780 OW            1 RES     
    5709 HW1         28.5780    13.7970     7.1980 HW1           1 RES     
    5710 HW2         29.9180    14.6960     7.4500 HW2           1 RES     
    5711 OW          45.4020    14.3020    13.4390 OW            1 RES     
    5712 HW1         44.6160    14.8520    13.7180 HW1           1 RES     
    5713 HW2         45.0890    13.4020    13.1330 HW2           1 RES     
    5714 OW          37.1200    38.7950    16.8830 OW            1 RES     
    5715 HW1         36.4980    38.2850    16.2900 HW1           1 RES     
    5716 HW2         37.6940    38.1550    17.3940 HW2           1 RES     
    5717 OW          17.0820    29.2870    14.4850 OW            1 RES     
    5718 HW1         16.6510    29.9800    15.0620 HW1           1 RES     
    5719 HW2         16.4740    28.4980    14.3990 HW2           1 RES     
    5720 OW          -0.0020    15.3640    11.0210 OW            1 RES     
    5721 HW1          0.9950    15.4150    11.0550 HW1           1 RES     
    5722 HW2         -0.3800    15.6060    11.9140 HW2           1 RES     
    5723 OW          12.2900     1.2930    11.2030 OW            1 RES     
    5724 HW1         12.4630     0.3530    10.9100 HW1           1 RES     
    5725 HW2         11.5370     1.6770    10.6680 HW2           1 RES     
    5726 OW          40.6320    13.2520     5.2670 OW            1 RES     
    5727 HW1         41.5090    12.7890     5.3940 HW1           1 RES     
    5728 HW2         40.4030    13.2730     4.2940 HW2           1 RES     
    5729 OW          43.8750     0.0860    15.6930 OW            1 RES     
    5730 HW1         42.9520     0.2340    16.0460 HW1           1 RES     
    5731 HW2         43.8270    -0.1670    14.7270 HW2           1 RES     
    5732 OW          -3.3130    40.2370     5.9680 OW            1 RES     
    5733 HW1         -4.0270    39.5710     6.1820 HW1           1 RES     
    5734 HW2         -3.7330    41.1170     5.7470 HW2           1 RES     
    5735 OW          -3.5740    16.3090     2.0550 OW            1 RES     
    5736 HW1         -4.2640    15.6380     1.7860 HW1           1 RES     
    5737 HW2         -3.5500    16.3820     3.0530 HW2           1 RES     
    5738 OW          44.0370    40.1240    16.6390 OW            1 RES     
    5739 HW1         43.3820    40.7590    16.2310 HW1           1 RES     
    5740 HW2         44.5160    39.6270    15.9150 HW2           1 RES     
    5741 OW          -0.3520    23.8770    13.6120 OW            1 RES     
    5742 HW1          0.6370    24.0170    13.5880 HW1           1 RES     
    5743 HW2         -0.8140    24.7010    13.2820 HW2           1 RES     
    5744 OW          36.7690     8.3980     2.2900 OW            1 RES     
    5745 HW1         36.1220     7.6370     2.3100 HW1           1 RES     
    5746 HW2         36.3680     9.1650     1.7890 HW2           1 RES     
    5747 OW          42.5380    38.2740    13.6340 OW            1 RES     
    5748 HW1         42.3010    38.9580    12.9460 HW1           1 RES     
    5749 HW2         41.7100    37.9750    14.1080 HW2           1 RES     
    5750 OW          14.9410    17.0690     5.4880 OW            1 RES     
    5751 HW1         15.6560    17.2940     6.1490 HW1           1 RES     
    5752 HW2         15.1890    16.2320     5.0000 HW2           1 RES     
    5753 OW          25.0710    15.4960    12.8140 OW            1 RES     
    5754 HW1         24.9610    15.4630    13.8070 HW1           1 RES     
    5755 HW2         25.6900    14.7670    12.5220 HW2           1 RES     
    5756 OW          16.2120    25.3190     4.8160 OW            1 RES     
    5757 HW1         15.2290    25.2740     4.9900 HW1           1 RES     
    5758 HW2         16.3830    25.8950     4.0160 HW2           1 RES     
    5759 OW          25.4740    20.5930     2.4830 OW            1 RES     
    5760 HW1         26.1400    21.1610     2.9670 HW1           1 RES     
    5761 HW2         24.6840    21.1500     2.2260 HW2           1 RES     
    5762 OW           5.8910    42.6860    17.0490 OW            1 RES     
    5763 HW1          6.5890    43.2510    16.6100 HW1           1 RES     
    5764 HW2          5.1570    43.2700    17.3950 HW2           1 RES     
    5765 OW           4.9200     0.2970     9.5790 OW            1 RES     
    5766 HW1          4.2840     0.8680    10.0980 HW1           1 RES     
    5767 HW2          4.5060    -0.5980     9.4130 HW2           1 RES     
    5768 OW          20.8760    -3.0670     8.4290 OW            1 RES     
    5769 HW1         21.3110    -3.6330     7.7300 HW1           1 RES     
    5770 HW2         20.9910    -2.1010     8.1960 HW2           1 RES     
    5771 OW          -1.6570    18.5100    15.2570 OW            1 RES     
    5772 HW1         -1.4680    18.0070    14.4150 HW1           1 RES     
    5773 HW2         -1.4730    19.4830    15.1140 HW2           1 RES     
    5774 OW          32.4290    32.8120     4.6360 OW            1 RES     
    5775 HW1         32.1970    31.8780     4.9070 HW1           1 RES     
    5776 HW2         33.4230    32.9260     4.6500 HW2           1 RES     
    5777 OW          32.3230    17.8000    12.3330 OW            1 RES     
    5778 HW1         32.3310    17.8830    13.3290 HW1           1 RES     
    5779 HW2         32.1140    16.8560    12.0780 HW2           1 RES     
    5780 OW          21.0940     4.2010    14.5110 OW            1 RES     
    5781 HW1         21.6540     5.0290    14.5160 HW1           1 RES     
    5782 HW2         21.2780     3.6790    13.6780 HW2           1 RES     
    5783 OW          34.3460    37.3240     9.1400 OW            1 RES     
    5784 HW1         33.5430    36.7290     9.1140 HW1           1 RES     
    5785 HW2         35.1550    36.8060     8.8610 HW2           1 RES     
    5786 OW          33.0780    26.4530     3.5440 OW            1 RES     
    5787 HW1         33.1990    27.4410     3.6250 HW1           1 RES     
    5788 HW2         33.9210    26.0390     3.2000 HW2           1 RES     
    5789 OW           3.8710     8.5710    13.9540 OW            1 RES     
    5790 HW1          3.7130     8.8460    13.0060 HW1           1 RES     
    5791 HW2          4.7840     8.8650    14.2390 HW2           1 RES     
    5792 OW           1.1580    40.7490    12.5600 OW            1 RES     
    5793 HW1          0.6080    40.5990    11.7400 HW1           1 RES     
    5794 HW2          2.1100    40.9100    12.2990 HW2           1 RES     
    5795 OW          34.0270    25.1140     5.7030 OW            1 RES     
    5796 HW1         33.9700    24.1480     5.4520 HW1           1 RES     
    5797 HW2         33.1390    25.5500     5.5560 HW2           1 RES     
    5798 OW           4.9100    25.9230    11.5530 OW            1 RES     
    5799 HW1          4.2540    25.6340    12.2490 HW1           1 RES     
    5800 HW2          4.6000    26.7780    11.1360 HW2           1 RES     
    5801 OW          -1.4830    -3.2760     2.1480 OW            1 RES     
    5802 HW1         -2.1390    -2.5780     1.8650 HW1           1 RES     
    5803 HW2         -1.8700    -3.8160     2.8960 HW2           1 RES     
    5804 OW           6.6090    40.4860    12.2940 OW            1 RES     
    5805 HW1          7.3910    40.6860    11.7060 HW1           1 RES     
    5806 HW2          6.0420    39.7810    11.8680 HW2           1 RES     
    5807 OW          43.7770    24.7350    12.9710 OW            1 RES     
    5808 HW1         44.6540    25.2070    13.0530 HW1           1 RES     
    5809 HW2         43.0400    25.4080    12.9040 HW2           1 RES     
    5810 OW          11.4570    15.1100    13.6090 OW            1 RES     
    5811 HW1         10.4680    15.0380    13.7380 HW1           1 RES     
    5812 HW2         11.7220    16.0750    13.5920 HW2           1 RES     
    5813 OW          19.4350    29.9410    16.3520 OW            1 RES     
    5814 HW1         18.4690    30.1900    16.2820 HW1           1 RES     
    5815 HW2         19.5160    28.9530    16.4860 HW2           1 RES     
    5816 OW          33.3810    24.4330    13.1950 OW            1 RES     
    5817 HW1         32.6520    24.7030    13.8240 HW1           1 RES     
    5818 HW2         33.3250    23.4500    13.0220 HW2           1 RES     
    5819 OW          22.8550    38.0550    13.3170 OW            1 RES     
    5820 HW1         22.7910    39.0510    13.2610 HW1           1 RES     
    5821 HW2         23.8160    37.7800    13.2900 HW2           1 RES     
    5822 OW          18.9910    37.3540     5.2860 OW            1 RES     
    5823 HW1         19.8260    37.7520     4.9070 HW1           1 RES     
    5824 HW2         18.3400    38.0830     5.4980 HW2           1 RES     
    5825 OW          32.6830    26.5510    16.4850 OW            1 RES     
    5826 HW1         32.6410    27.5450    16.5770 HW1           1 RES     
    5827 HW2         33.5810    26.2850    16.1330 HW2           1 RES     
    5828 OW          28.8870    32.0390    13.8090 OW            1 RES     
    5829 HW1         29.8410    31.8580    13.5740 HW1           1 RES     
    5830 HW2         28.3110    31.3000    13.4580 HW2           1 RES     
    5831 OW          11.1090    26.4420     6.7660 OW            1 RES     
    5832 HW1         11.3910    27.0510     6.0250 HW1           1 RES     
    5833 HW2         11.8520    25.8060     6.9760 HW2           1 RES     
    5834 OW          15.3130     9.4220    10.0920 OW            1 RES     
    5835 HW1         15.7340     8.5170    10.1470 HW1           1 RES     
    5836 HW2         14.3190     9.3330    10.1600 HW2           1 RES     
    5837 OW          -0.1670    31.2500     5.4020 OW            1 RES     
    5838 HW1         -0.9780    30.7010     5.2030 HW1           1 RES     
    5839 HW2         -0.0820    31.3730     6.3910 HW2           1 RES     
    5840 OW          25.2230    40.3360    10.0870 OW            1 RES     
    5841 HW1         25.9320    39.9130     9.5240 HW1           1 RES     
    5842 HW2         24.5030    40.7030     9.4970 HW2           1 RES     
    5843 OW           6.0950    12.6640     2.0600 OW            1 RES     
    5844 HW1          5.2910    12.1370     1.7870 HW1           1 RES     
    5845 HW2          5.8930    13.6410     1.9940 HW2           1 RES     
    5846 OW           4.3380     4.1500    13.8470 OW            1 RES     
    5847 HW1          3.4630     4.2430    14.3220 HW1           1 RES     
    5848 HW2          4.5270     4.9850    13.3290 HW2           1 RES     
    5849 OW          35.8740    34.3590    17.1720 OW            1 RES     
    5850 HW1         35.0380    33.9180    16.8470 HW1           1 RES     
    5851 HW2         35.6990    35.3310    17.3280 HW2           1 RES     
    5852 OW           9.4680    12.3450    10.6150 OW            1 RES     
    5853 HW1          8.4980    12.1080    10.6330 HW1           1 RES     
    5854 HW2         10.0150    11.5080    10.5790 HW2           1 RES     
    5855 OW          -1.5520    29.1930    17.2120 OW            1 RES     
    5856 HW1         -2.4330    29.6270    17.3960 HW1           1 RES     
    5857 HW2         -1.6220    28.2100    17.3810 HW2           1 RES     
    5858 OW          37.1160    23.1880    16.8980 OW            1 RES     
    5859 HW1         37.9900    22.7040    16.8820 HW1           1 RES     
    5860 HW2         36.4050    22.6070    16.5000 HW2           1 RES     
    5861 OW          -2.2520    12.4840     6.3420 OW            1 RES     
    5862 HW1         -2.9950    13.1460     6.2450 HW1           1 RES     
    5863 HW2         -2.5070    11.7940     7.0200 HW2           1 RES     
    5864 OW          29.3210    19.4340     8.3740 OW            1 RES     
    5865 HW1         28.9510    19.2420     7.4660 HW1           1 RES     
    5866 HW2         29.5170    18.5730     8.8440 HW2           1 RES     
    5867 OW          16.7200    10.0230    13.2790 OW            1 RES     
    5868 HW1         17.0640    10.9420    13.0900 HW1           1 RES     
    5869 HW2         15.7310    10.0000    13.1340 HW2           1 RES     
    5870 OW          33.5350     4.7240     6.8560 OW            1 RES     
    5871 HW1         33.8400     5.6710     6.7630 HW1           1 RES     
    5872 HW2         34.0740     4.2660     7.5630 HW2           1 RES     
    5873 OW          41.6080    19.3710    12.9480 OW            1 RES     
    5874 HW1         42.2950    19.6970    13.5960 HW1           1 RES     
    5875 HW2         40.7010    19.6780    13.2390 HW2           1 RES     
    5876 OW          34.9340    35.1390    12.9690 OW            1 RES     
    5877 HW1         34.7370    35.0940    13.9480 HW1           1 RES     
    5878 HW2         35.2940    36.0440    12.7420 HW2           1 RES     
    5879 OW          31.4670     7.2790     8.7220 OW            1 RES     
    5880 HW1         32.3000     7.6690     8.3320 HW1           1 RES     
    5881 HW2         31.6650     6.3710     9.0920 HW2           1 RES     
    5882 OW          43.8120    18.7290     3.4600 OW            1 RES     
    5883 HW1         42.9700    19.2670     3.4630 HW1           1 RES     
    5884 HW2         44.6010    19.3430     3.4710 HW2           1 RES     
    5885 OW           6.2720    16.7310    10.0360 OW            1 RES     
    5886 HW1          6.3190    15.8430    10.4920 HW1           1 RES     
    5887 HW2          5.5930    16.6940     9.3030 HW2           1 RES     
    5888 OW          33.8340     6.0670     9.2980 OW            1 RES     
    5889 HW1         33.4680     5.1560     9.4830 HW1           1 RES     
    5890 HW2         34.6920     5.9860     8.7900 HW2           1 RES     
    5891 OW          -6.1080    12.8730     6.2310 OW            1 RES     
    5892 HW1         -5.1910    13.2700     6.2470 HW1           1 RES     
    5893 HW2         -6.0580    11.9060     6.4810 HW2           1 RES     
    5894 OW          30.6740    35.9580     5.7800 OW            1 RES     
    5895 HW1         29.7940    35.6340     6.1250 HW1           1 RES     
    5896 HW2         30.8070    36.9120     6.0480 HW2           1 RES     
    5897 OW           3.1730    14.8370     2.0770 OW            1 RES     
    5898 HW1          3.2090    15.8360     2.0860 HW1           1 RES     
    5899 HW2          2.7630    14.5090     2.9280 HW2           1 RES     
    5900 OW          45.3990    16.9690    11.8680 OW            1 RES     
    5901 HW1         45.2440    15.9840    11.9380 HW1           1 RES     
    5902 HW2         44.5210    17.4400    11.7900 HW2           1 RES     
    5903 OW          33.5450    33.6130     9.5310 OW            1 RES     
    5904 HW1         32.8860    32.8620     9.5650 HW1           1 RES     
    5905 HW2         34.4640    33.2580     9.7020 HW2           1 RES     
    5906 OW          17.8480    19.2470    12.7910 OW            1 RES     
    5907 HW1         17.6280    18.3240    13.1050 HW1           1 RES     
    5908 HW2         17.7380    19.2970    11.7980 HW2           1 RES     
    5909 OW           8.8370     4.4180     7.8480 OW            1 RES     
    5910 HW1          8.8920     5.3830     7.5910 HW1           1 RES     
    5911 HW2          8.6180     3.8700     7.0410 HW2           1 RES     
    5912 OW           7.7860    28.7960    17.1390 OW            1 RES     
    5913 HW1          8.3060    29.6100    17.3970 HW1           1 RES     
    5914 HW2          6.9600    29.0690    16.6460 HW2           1 RES     
    5915 OW          18.7600     5.9210     8.7840 OW            1 RES     
    5916 HW1         18.3860     6.8360     8.9320 HW1           1 RES     
    5917 HW2         18.0130     5.2590     8.7320 HW2           1 RES     
    5918 OW          -2.7100     3.5490    15.1270 OW            1 RES     
    5919 HW1         -2.0170     2.8430    14.9870 HW1           1 RES     
    5920 HW2         -3.0360     3.5140    16.0720 HW2           1 RES     
    5921 OW          34.5820    34.2430     2.2610 OW            1 RES     
    5922 HW1         35.2330    33.6280     1.8170 HW1           1 RES     
    5923 HW2         33.7330    33.7500     2.4520 HW2           1 RES     
    5924 OW          -1.7400    41.9920     1.7910 OW            1 RES     
    5925 HW1         -1.1940    41.1550     1.7860 HW1           1 RES     
    5926 HW2         -2.7120    41.7560     1.7950 HW2           1 RES     
    5927 OW          20.1790    40.5400     1.8700 OW            1 RES     
    5928 HW1         20.9540    39.9150     1.7860 HW1           1 RES     
    5929 HW2         19.3320    40.0130     1.9420 HW2           1 RES     
    5930 OW          -1.0080    27.9590     2.9120 OW            1 RES     
    5931 HW1         -0.7480    28.9240     2.9170 HW1           1 RES     
    5932 HW2         -2.0050    27.8820     2.9190 HW2           1 RES     
    5933 OW          40.2160     5.2130    10.8730 OW            1 RES     
    5934 HW1         40.4900     6.0270    10.3620 HW1           1 RES     
    5935 HW2         39.5670     5.4710    11.5890 HW2           1 RES     
    5936 OW          22.7780    34.8140     2.1050 OW            1 RES     
    5937 HW1         22.8950    35.7910     1.9340 HW1           1 RES     
    5938 HW2         21.8270    34.5560     1.9320 HW2           1 RES     
    5939 OW          29.5960    39.1260     6.9830 OW            1 RES     
    5940 HW1         29.0910    39.9880     7.0330 HW1           1 RES     
    5941 HW2         30.3200    39.1230     7.6730 HW2           1 RES     
    5942 OW          -1.9000    22.6170    11.8030 OW            1 RES     
    5943 HW1         -2.2480    22.9740    12.6690 HW1           1 RES     
    5944 HW2         -2.5240    21.9170    11.4550 HW2           1 RES     
    5945 OW           3.5040    31.1260     2.1660 OW            1 RES     
    5946 HW1          3.6370    31.9820     2.6640 HW1           1 RES     
    5947 HW2          4.3780    30.8200     1.7870 HW2           1 RES     
    5948 OW          15.0870    37.2800    13.5980 OW            1 RES     
    5949 HW1         14.6720    36.3700    13.5980 HW1           1 RES     
    5950 HW2         16.0310    37.2160    13.9200 HW2           1 RES     
    5951 OW          24.3330    26.9510    11.6000 OW            1 RES     
    5952 HW1         24.5170    26.7110    10.6480 HW1           1 RES     
    5953 HW2         23.6910    27.7170    11.6330 HW2           1 RES     
    5954 OW          -3.8960    -1.5150    12.3070 OW            1 RES     
    5955 HW1         -3.6140    -2.4720    12.2450 HW1           1 RES     
    5956 HW2         -4.8840    -1.4480    12.1650 HW2           1 RES     
    5957 OW          -0.4700     5.5220     6.4170 OW            1 RES     
    5958 HW1         -1.2800     5.8120     5.9090 HW1           1 RES     
    5959 HW2          0.3520     5.8440     5.9450 HW2           1 RES     
    5960 OW          29.0210    41.3790     5.1630 OW            1 RES     
    5961 HW1         28.3310    42.0980     5.0870 HW1           1 RES     
    5962 HW2         28.7760    40.6170     4.5640 HW2           1 RES     
    5963 OW          21.3560    31.7880     5.7700 OW            1 RES     
    5964 HW1         20.3730    31.8510     5.6050 HW1           1 RES     
    5965 HW2         21.8040    31.3860     4.9710 HW2           1 RES     
    5966 OW          19.5290    34.5140     8.8360 OW            1 RES     
    5967 HW1         19.2810    34.0870     7.9680 HW1           1 RES     
    5968 HW2         20.5230    34.4980     8.9440 HW2           1 RES     
    5969 OW          -2.7860    38.5930     8.4820 OW            1 RES     
    5970 HW1         -2.9840    37.6660     8.7990 HW1           1 RES     
    5971 HW2         -1.8420    38.6400     8.1550 HW2           1 RES     
    5972 OW          33.3410     6.5380    13.9040 OW            1 RES     
    5973 HW1         33.7120     5.7640    14.4160 HW1           1 RES     
    5974 HW2         33.8160     7.3760    14.1740 HW2           1 RES     
    5975 OW          25.1500    17.0440     1.8480 OW            1 RES     
    5976 HW1         26.1190    16.8080     1.7870 HW1           1 RES     
    5977 HW2         25.0540    18.0300     1.9870 HW2           1 RES     
    5978 OW           6.4220    40.8450     7.8920 OW            1 RES     
    5979 HW1          5.4930    40.4940     8.0050 HW1           1 RES     
    5980 HW2          7.0490    40.3200     8.4680 HW2           1 RES     
    5981 OW          16.6070     1.6320     3.0250 OW            1 RES     
    5982 HW1         17.5200     1.4510     3.3900 HW1           1 RES     
    5983 HW2         16.3940     0.9630     2.3130 HW2           1 RES     
    5984 OW           7.4400    19.5860     4.4710 OW            1 RES     
    5985 HW1          8.0790    18.8210     4.5420 HW1           1 RES     
    5986 HW2          6.5960    19.3630     4.9600 HW2           1 RES     
    5987 OW          29.1760    16.4390    10.5040 OW            1 RES     
    5988 HW1         28.5550    17.1780    10.2470 HW1           1 RES     
    5989 HW2         28.8170    15.9650    11.3070 HW2           1 RES     
    5990 OW          32.4370    21.4610     2.8750 OW            1 RES     
    5991 HW1         31.7790    20.8510     2.4340 HW1           1 RES     
    5992 HW2         33.3130    21.4080     2.3960 HW2           1 RES     
    5993 OW          37.9020    11.5150     9.6670 OW            1 RES     
    5994 HW1         38.5920    10.8900    10.0300 HW1           1 RES     
    5995 HW2         38.3230    12.4000     9.4710 HW2           1 RES     
    5996 OW          39.8460    30.2520     4.0500 OW            1 RES     
    5997 HW1         39.4080    30.2090     4.9470 HW1           1 RES     
    5998 HW2         39.2090    29.9260     3.3510 HW2           1 RES     
    5999 OW          10.0360     5.1080     5.6440 OW            1 RES     
    6000 HW1         10.5620     4.8570     4.8320 HW1           1 RES     
    6001 HW2          9.0790     5.2500     5.3910 HW2           1 RES     
    6002 OW           2.7090    -0.7210    14.8620 OW            1 RES     
    6003 HW1          2.8260    -1.6590    14.5390 HW1           1 RES     
    6004 HW2          3.5880    -0.3660    15.1830 HW2           1 RES     
    6005 OW          26.2870    26.1990    12.8040 OW            1 RES     
    6006 HW1         25.4790    25.9550    13.3390 HW1           1 RES     
    6007 HW2         26.5620    27.1350    13.0220 HW2           1 RES     
    6008 OW          45.4010     4.7330    15.0880 OW            1 RES     
    6009 HW1         44.9740     4.3170    15.8900 HW1           1 RES     
    6010 HW2         44.6970     5.1470    14.5120 HW2           1 RES     
    6011 OW          26.2470     4.5880     8.4120 OW            1 RES     
    6012 HW1         26.3850     3.8850     9.1080 HW1           1 RES     
    6013 HW2         26.0310     4.1550     7.5370 HW2           1 RES     
    6014 OW          39.5020    -0.0210    13.7130 OW            1 RES     
    6015 HW1         40.4230     0.2940    13.4890 HW1           1 RES     
    6016 HW2         39.5570    -0.7930    14.3460 HW2           1 RES     
    6017 OW          33.8990    39.0110    13.4160 OW            1 RES     
    6018 HW1         32.9080    38.8880    13.4740 HW1           1 RES     
    6019 HW2         34.2430    39.3610    14.2880 HW2           1 RES     
    6020 OW          28.3020    11.7920    12.4330 OW            1 RES     
    6021 HW1         27.4520    11.3890    12.7710 HW1           1 RES     
    6022 HW2         28.1800    12.7770    12.3110 HW2           1 RES     
    6023 OW          28.6480    20.1500    16.6660 OW            1 RES     
    6024 HW1         29.0990    19.4880    16.0690 HW1           1 RES     
    6025 HW2         29.3380    20.6900    17.1480 HW2           1 RES     
    6026 OW          14.5820    42.4830     3.1240 OW            1 RES     
    6027 HW1         14.2580    42.1730     2.2310 HW1           1 RES     
    6028 HW2         13.8170    42.4990     3.7690 HW2           1 RES     
    6029 OW          39.5890     4.4840     3.9840 OW            1 RES     
    6030 HW1         40.3110     3.7950     3.9360 HW1           1 RES     
    6031 HW2         38.9790     4.3840     3.1990 HW2           1 RES     
    6032 OW          33.9650    16.6890    10.6280 OW            1 RES     
    6033 HW1         34.8690    16.4180    10.9550 HW1           1 RES     
    6034 HW2         33.3770    15.8820    10.5630 HW2           1 RES     
    6035 OW          29.5310    16.6990     5.2200 OW            1 RES     
    6036 HW1         29.3590    15.8060     5.6340 HW1           1 RES     
    6037 HW2         30.0380    16.5790     4.3670 HW2           1 RES     
    6038 OW          41.3350     4.5690    12.9200 OW            1 RES     
    6039 HW1         40.6760     3.8190    12.9690 HW1           1 RES     
    6040 HW2         42.2580     4.2120    13.0630 HW2           1 RES     
    6041 OW          16.6650    -0.2090    12.4230 OW            1 RES     
    6042 HW1         17.2800    -0.9780    12.2520 HW1           1 RES     
    6043 HW2         16.1550     0.0030    11.5890 HW2           1 RES     
    6044 OW           6.5880     9.6670     2.7810 OW            1 RES     
    6045 HW1          5.6780     9.5880     3.1860 HW1           1 RES     
    6046 HW2          6.7600    10.6200     2.5310 HW2           1 RES     
    6047 OW          14.1130    41.8070     6.4730 OW            1 RES     
    6048 HW1         13.8040    42.7210     6.7330 HW1           1 RES     
    6049 HW2         14.7800    41.8780     5.7320 HW2           1 RES     
    6050 OW          23.7130     1.5080     3.0160 OW            1 RES     
    6051 HW1         23.5210     2.4600     3.2510 HW1           1 RES     
    6052 HW2         24.6610     1.2900     3.2490 HW2           1 RES     
    6053 OW          28.7690    30.4520    11.2130 OW            1 RES     
    6054 HW1         29.1560    29.9070    11.9550 HW1           1 RES     
    6055 HW2         29.2790    31.3080    11.1260 HW2           1 RES     
    6056 OW          21.1740    38.6310    16.0470 OW            1 RES     
    6057 HW1         21.4670    38.8030    16.9870 HW1           1 RES     
    6058 HW2         20.3510    39.1650    15.8510 HW2           1 RES     
    6059 OW          -6.1050    16.7830     2.1800 OW            1 RES     
    6060 HW1         -5.9450    17.6900     1.7940 HW1           1 RES     
    6061 HW2         -5.7220    16.7420     3.1040 HW2           1 RES     
    6062 OW          31.3110    28.3320     9.8040 OW            1 RES     
    6063 HW1         30.7740    27.5000     9.9390 HW1           1 RES     
    6064 HW2         30.7300    29.1320     9.9570 HW2           1 RES     
    6065 OW          44.4510    14.9010     5.0920 OW            1 RES     
    6066 HW1         45.4020    14.6290     5.2320 HW1           1 RES     
    6067 HW2         44.3790    15.8980     5.1330 HW2           1 RES     
    6068 OW          39.0580    21.1120     2.7720 OW            1 RES     
    6069 HW1         38.2080    20.7070     2.4380 HW1           1 RES     
    6070 HW2         38.9480    22.1020     2.8510 HW2           1 RES     
    6071 OW          10.5370    30.1580     8.7610 OW            1 RES     
    6072 HW1         11.3050    29.5210     8.8240 HW1           1 RES     
    6073 HW2          9.9810    30.0920     9.5890 HW2           1 RES     
    6074 OW          35.3100    37.7510     2.8900 OW            1 RES     
    6075 HW1         35.0820    38.2940     3.6970 HW1           1 RES     
    6076 HW2         35.8090    38.3200     2.2350 HW2           1 RES     
    6077 OW          23.8530    10.3180     3.6760 OW            1 RES     
    6078 HW1         24.4080    11.1480     3.7270 HW1           1 RES     
    6079 HW2         24.4490     9.5160     3.7140 HW2           1 RES     
    6080 OW          11.3350    -3.2020     8.3210 OW            1 RES     
    6081 HW1         11.1550    -2.2420     8.1090 HW1           1 RES     
    6082 HW2         10.4710    -3.7030     8.3650 HW2           1 RES     
    6083 OW          19.1830    26.7230     6.4000 OW            1 RES     
    6084 HW1         18.2260    26.5600     6.1640 HW1           1 RES     
    6085 HW2         19.2340    27.3810     7.1520 HW2           1 RES     
    6086 OW           4.5280    -3.7650     9.0330 OW            1 RES     
    6087 HW1          3.9480    -4.2500     9.6860 HW1           1 RES     
    6088 HW2          4.5790    -2.7980     9.2860 HW2           1 RES     
    6089 OW          30.2320    27.4040    12.1900 OW            1 RES     
    6090 HW1         30.9470    26.7320    12.3800 HW1           1 RES     
    6091 HW2         30.6510    28.2910    11.9940 HW2           1 RES     
    6092 OW          42.8040    31.6480    13.9320 OW            1 RES     
    6093 HW1         42.8510    30.7540    13.4880 HW1           1 RES     
    6094 HW2         43.2150    31.5910    14.8420 HW2           1 RES     
    6095 OW          38.4850    19.8000    14.5940 OW            1 RES     
    6096 HW1         38.3780    19.1570    15.3510 HW1           1 RES     
    6097 HW2         37.7860    20.5120    14.6580 HW2           1 RES     
    6098 OW          24.4740     6.1560    10.2780 OW            1 RES     
    6099 HW1         25.0790     6.1140     9.4840 HW1           1 RES     
    6100 HW2         24.8680     5.6230    11.0270 HW2           1 RES     
    6101 OW          25.2060     8.3060     9.7950 OW            1 RES     
    6102 HW1         24.4050     8.2000     9.2070 HW1           1 RES     
    6103 HW2         24.9310     8.7160    10.6640 HW2           1 RES     
    6104 OW          12.9100     3.3600    15.9330 OW            1 RES     
    6105 HW1         13.6130     2.6560    15.8410 HW1           1 RES     
    6106 HW2         13.2210     4.2020    15.4920 HW2           1 RES     
    6107 OW          32.2600    23.6180     9.2000 OW            1 RES     
    6108 HW1         31.9210    22.7530     9.5680 HW1           1 RES     
    6109 HW2         31.4860    24.2070     8.9670 HW2           1 RES     
    6110 OW           7.3150     9.3920    10.7990 OW            1 RES     
    6111 HW1          7.1580    10.3630    10.6220 HW1           1 RES     
    6112 HW2          8.2560     9.1560    10.5540 HW2           1 RES     
    6113 OW           5.3500    41.2230     4.7440 OW            1 RES     
    6114 HW1          4.6050    40.6820     5.1330 HW1           1 RES     
    6115 HW2          5.3520    41.1220     3.7490 HW2           1 RES     
    6116 OW          20.9500    13.9870    10.3400 OW            1 RES     
    6117 HW1         21.9190    13.8330    10.5270 HW1           1 RES     
    6118 HW2         20.4480    13.1290    10.4520 HW2           1 RES     
    6119 OW          32.8490    15.7810     7.4730 OW            1 RES     
    6120 HW1         31.9860    15.3760     7.7750 HW1           1 RES     
    6121 HW2         33.4110    15.0790     7.0350 HW2           1 RES     
    6122 OW          12.2740    29.7280     2.3830 OW            1 RES     
    6123 HW1         13.1290    30.2430     2.3440 HW1           1 RES     
    6124 HW2         11.5150    30.3170     2.1050 HW2           1 RES     
    6125 OW           3.2300    23.9240    14.5490 OW            1 RES     
    6126 HW1          2.4020    24.3990    14.8450 HW1           1 RES     
    6127 HW2          3.0340    22.9500    14.4380 HW2           1 RES     
    6128 OW          35.8680    -0.9360    13.5590 OW            1 RES     
    6129 HW1         35.6690    -0.4710    12.6970 HW1           1 RES     
    6130 HW2         36.7600    -1.3850    13.4980 HW2           1 RES     
    6131 OW          34.3760     0.3860    16.5490 OW            1 RES     
    6132 HW1         33.5730    -0.1840    16.3790 HW1           1 RES     
    6133 HW2         34.1090     1.1870    17.0860 HW2           1 RES     
    6134 OW          29.8370    14.0770    10.7670 OW            1 RES     
    6135 HW1         30.4760    14.2820    10.0270 HW1           1 RES     
    6136 HW2         30.3460    13.7670    11.5710 HW2           1 RES     
    6137 OW          10.4070    39.7850    16.4390 OW            1 RES     
    6138 HW1         11.2870    40.1960    16.2020 HW1           1 RES     
    6139 HW2          9.6820    40.4670    16.3440 HW2           1 RES     
    6140 OW           7.0260    23.3730    11.3000 OW            1 RES     
    6141 HW1          6.9090    23.7040    12.2360 HW1           1 RES     
    6142 HW2          7.0940    22.3760    11.3050 HW2           1 RES     
    6143 OW          37.2410    33.5640     9.2370 OW            1 RES     
    6144 HW1         36.4300    33.8540     8.7300 HW1           1 RES     
    6145 HW2         38.0410    34.0590     8.8970 HW2           1 RES     
    6146 OW           6.4660     7.2810    11.4730 OW            1 RES     
    6147 HW1          6.5310     7.3060    10.4760 HW1           1 RES     
    6148 HW2          5.5040     7.2330    11.7430 HW2           1 RES     
    6149 OW          -3.9530    -0.2060     2.8310 OW            1 RES     
    6150 HW1         -4.0460     0.6270     2.2880 HW1           1 RES     
    6151 HW2         -3.1790    -0.7410     2.4910 HW2           1 RES     
    6152 OW          -2.3870    40.1860    10.6690 OW            1 RES     
    6153 HW1         -2.4910    41.1060    11.0450 HW1           1 RES     
    6154 HW2         -3.2460    39.6830    10.7730 HW2           1 RES     
    6155 OW           0.9620    15.6560     5.5650 OW            1 RES     
    6156 HW1          1.2190    15.5140     6.5200 HW1           1 RES     
    6157 HW2          1.7390    16.0380     5.0640 HW2           1 RES     
    6158 OW          31.6030     4.5750    11.9030 OW            1 RES     
    6159 HW1         31.5660     3.5760    11.9200 HW1           1 RES     
    6160 HW2         30.6930     4.9380    11.7030 HW2           1 RES     
    6161 OW          29.1000    17.4790    13.0230 OW            1 RES     
    6162 HW1         30.0650    17.2300    13.1040 HW1           1 RES     
    6163 HW2         29.0210    18.3650    12.5660 HW2           1 RES     
    6164 OW          22.7650    14.2940     4.5160 OW            1 RES     
    6165 HW1         23.3660    14.6890     3.8220 HW1           1 RES     
    6166 HW2         22.6480    14.9450     5.2660 HW2           1 RES     
    6167 OW          42.5460    17.7300     8.2540 OW            1 RES     
    6168 HW1         42.1150    16.8800     7.9520 HW1           1 RES     
    6169 HW2         41.8390    18.3890     8.5140 HW2           1 RES     
    6170 OW          13.6230     3.4810     6.2150 OW            1 RES     
    6171 HW1         13.5780     2.4930     6.3640 HW1           1 RES     
    6172 HW2         14.5360     3.8130     6.4520 HW2           1 RES     
    6173 OW          31.3620    11.9170     7.9420 OW            1 RES     
    6174 HW1         32.1530    11.3090     7.8790 HW1           1 RES     
    6175 HW2         31.4440    12.6440     7.2590 HW2           1 RES     
    6176 OW          36.4610    19.6950     3.3260 OW            1 RES     
    6177 HW1         35.9570    19.1330     3.9810 HW1           1 RES     
    6178 HW2         35.8350    20.3430     2.8910 HW2           1 RES     
    6179 OW          44.4350     3.6500     8.1870 OW            1 RES     
    6180 HW1         45.1180     4.2630     7.7900 HW1           1 RES     
    6181 HW2         43.5550     4.1230     8.2430 HW2           1 RES     
    6182 OW           4.9750     1.6790    14.9740 OW            1 RES     
    6183 HW1          5.7730     2.2700    14.8620 HW1           1 RES     
    6184 HW2          4.1410     2.2250    14.8930 HW2           1 RES     
    6185 OW          17.7380    36.4640     2.9060 OW            1 RES     
    6186 HW1         18.5150    35.8660     3.1010 HW1           1 RES     
    6187 HW2         17.8430    37.3220     3.4090 HW2           1 RES     
    6188 OW           5.9520    11.7060    17.1050 OW            1 RES     
    6189 HW1          6.8090    12.2020    17.2430 HW1           1 RES     
    6190 HW2          5.1910    12.3540    17.0820 HW2           1 RES     
    6191 OW          13.9900    41.1670    17.3960 OW            1 RES     
    6192 HW1         13.0270    41.1710    17.1300 HW1           1 RES     
    6193 HW2         14.4430    40.3690    16.9980 HW2           1 RES     
    6194 OW          42.2280     6.6960    16.6910 OW            1 RES     
    6195 HW1         41.8330     5.8540    17.0590 HW1           1 RES     
    6196 HW2         42.7780     7.1430    17.3970 HW2           1 RES     
    6197 OW           4.0140    21.1870     2.9580 OW            1 RES     
    6198 HW1          3.5590    21.9140     2.4450 HW1           1 RES     
    6199 HW2          3.3670    20.4440     3.1300 HW2           1 RES     
    6200 OW          38.5690    20.2630     9.1180 OW            1 RES     
    6201 HW1         39.1980    19.4870     9.1050 HW1           1 RES     
    6202 HW2         37.6360    19.9340     9.2670 HW2           1 RES     
    6203 OW          17.3780    -1.9060     7.6590 OW            1 RES     
    6204 HW1         18.2030    -2.4390     7.4740 HW1           1 RES     
    6205 HW2         17.5890    -0.9310     7.5920 HW2           1 RES     
    6206 OW          43.5230     9.5510    16.8650 OW            1 RES     
    6207 HW1         42.8100    10.2520    16.8520 HW1           1 RES     
    6208 HW2         44.4180     9.9870    16.9540 HW2           1 RES     
    6209 OW           0.6480     8.8860     3.2530 OW            1 RES     
    6210 HW1         -0.0100     9.5750     3.5530 HW1           1 RES     
    6211 HW2          0.9680     8.3630     4.0430 HW2           1 RES     
    6212 OW          -1.2960     7.4670     9.8870 OW            1 RES     
    6213 HW1         -1.8110     7.0000    10.6050 HW1           1 RES     
    6214 HW2         -1.2920     8.4510    10.0660 HW2           1 RES     
    6215 OW          42.9750    -4.0870     7.3830 OW            1 RES     
    6216 HW1         42.7960    -3.1120     7.2570 HW1           1 RES     
    6217 HW2         43.9000    -4.3000     7.0700 HW2           1 RES     
    6218 OW          23.9660    19.5910    14.4080 OW            1 RES     
    6219 HW1         22.9720    19.5920    14.5190 HW1           1 RES     
    6220 HW2         24.1950    19.3810    13.4570 HW2           1 RES     
    6221 OW           2.2940     2.6860     2.2700 OW            1 RES     
    6222 HW1          1.4400     2.9270     1.8100 HW1           1 RES     
    6223 HW2          3.0630     3.1060     1.7880 HW2           1 RES     
    6224 OW          -3.1320    -0.5930     7.5830 OW            1 RES     
    6225 HW1         -3.5590    -0.0540     6.8570 HW1           1 RES     
    6226 HW2         -3.1950    -1.5660     7.3570 HW2           1 RES     
    6227 OW          -3.0450    31.0460     7.9400 OW            1 RES     
    6228 HW1         -2.9660    30.0620     8.0960 HW1           1 RES     
    6229 HW2         -2.1360    31.4320     7.7800 HW2           1 RES     
    6230 OW           0.2430     7.9450     6.8570 OW            1 RES     
    6231 HW1          0.4020     8.9280     6.9470 HW1           1 RES     
    6232 HW2         -0.7360     7.7730     6.7500 HW2           1 RES     
    6233 OW          32.1900    18.6120     4.0420 OW            1 RES     
    6234 HW1         31.9240    18.4670     3.0890 HW1           1 RES     
    6235 HW2         31.5190    18.1820     4.6460 HW2           1 RES     
    6236 OW           8.6640     7.9360    13.3990 OW            1 RES     
    6237 HW1          9.2220     8.4180    14.0740 HW1           1 RES     
    6238 HW2          7.6960     8.0500    13.6230 HW2           1 RES     
    6239 OW           5.7690    15.6780    13.0660 OW            1 RES     
    6240 HW1          6.1770    14.8250    12.7440 HW1           1 RES     
    6241 HW2          6.4900    16.3510    13.2320 HW2           1 RES     
    6242 OW          28.2680     1.0940     5.0120 OW            1 RES     
    6243 HW1         27.4890     1.3500     4.4410 HW1           1 RES     
    6244 HW2         28.5180     1.8640     5.6000 HW2           1 RES     
    6245 OW          -5.4880    35.6510     7.7230 OW            1 RES     
    6246 HW1         -4.9570    35.7130     6.8790 HW1           1 RES     
    6247 HW2         -5.7760    34.7040     7.8680 HW2           1 RES     
    6248 OW          19.0580    -1.7800     9.4260 OW            1 RES     
    6249 HW1         19.3180    -2.5900     9.9510 HW1           1 RES     
    6250 HW2         18.9800    -0.9940    10.0400 HW2           1 RES     
    6251 OW           8.7730    16.7480     5.2180 OW            1 RES     
    6252 HW1          9.7380    16.9870     5.3220 HW1           1 RES     
    6253 HW2          8.6580    16.1620     4.4150 HW2           1 RES     
    6254 OW          26.3510    32.3350    16.4950 OW            1 RES     
    6255 HW1         26.4690    32.4490    15.5100 HW1           1 RES     
    6256 HW2         25.8920    31.4650    16.6780 HW2           1 RES     
    6257 OW          34.8310    12.6860    17.0740 OW            1 RES     
    6258 HW1         34.9140    13.6820    17.1060 HW1           1 RES     
    6259 HW2         33.8640    12.4320    17.0720 HW2           1 RES     
    6260 OW          18.9170    14.1680     8.6580 OW            1 RES     
    6261 HW1         18.7170    13.2680     8.2720 HW1           1 RES     
    6262 HW2         18.2110    14.8180     8.3760 HW2           1 RES     
    6263 OW          19.9650    38.0870     7.1240 OW            1 RES     
    6264 HW1         20.9200    38.0770     6.8300 HW1           1 RES     
    6265 HW2         19.8530    37.4850     7.9160 HW2           1 RES     
    6266 OW          17.1600     1.4400    16.2530 OW            1 RES     
    6267 HW1         16.2660     0.9920    16.2710 HW1           1 RES     
    6268 HW2         17.0350     2.4320    16.2430 HW2           1 RES     
    6269 OW           9.3180    -0.9900    13.2270 OW            1 RES     
    6270 HW1          9.4790    -1.6010    12.4530 HW1           1 RES     
    6271 HW2          9.1770    -0.0580    12.8940 HW2           1 RES     
    6272 OW           0.8490    32.7850     3.0580 OW            1 RES     
    6273 HW1          1.0640    33.7440     2.8760 HW1           1 RES     
    6274 HW2          1.4530    32.1990     2.5160 HW2           1 RES     
    6275 OW          -5.8310    31.1100     5.2320 OW            1 RES     
    6276 HW1         -5.5270    30.5160     4.4880 HW1           1 RES     
    6277 HW2         -5.8290    32.0610     4.9220 HW2           1 RES     
    6278 OW           3.8950    36.1620     2.0760 OW            1 RES     
    6279 HW1          3.6510    37.1030     1.8470 HW1           1 RES     
    6280 HW2          4.8510    36.1260     2.3670 HW2           1 RES     
    6281 OW           4.8610    24.7960     7.7270 OW            1 RES     
    6282 HW1          5.5350    24.1890     8.1470 HW1           1 RES     
    6283 HW2          4.6280    24.4560     6.8150 HW2           1 RES     
    6284 OW          29.9730    33.2690     2.9320 OW            1 RES     
    6285 HW1         29.7430    32.6070     2.2200 HW1           1 RES     
    6286 HW2         30.7390    33.8350     2.6280 HW2           1 RES     
    6287 OW          41.4100    33.2690     5.3760 OW            1 RES     
    6288 HW1         40.9680    32.3730     5.3350 HW1           1 RES     
    6289 HW2         41.8740    33.3730     6.2550 HW2           1 RES     
    6290 OW           9.6660    38.6820     8.3090 OW            1 RES     
    6291 HW1          8.6870    38.8310     8.1760 HW1           1 RES     
    6292 HW2          9.8120    38.1280     9.1290 HW2           1 RES     
    6293 OW          35.3350     0.2850     9.6730 OW            1 RES     
    6294 HW1         35.9460     0.6940     8.9970 HW1           1 RES     
    6295 HW2         34.4640     0.7770     9.6760 HW2           1 RES     
    6296 OW           7.3350    25.7220    14.1800 OW            1 RES     
    6297 HW1          6.7520    26.4040    14.6190 HW1           1 RES     
    6298 HW2          7.9780    26.1780    13.5640 HW2           1 RES     
    6299 OW          31.4940    11.5860    12.4000 OW            1 RES     
    6300 HW1         31.8240    12.0890    11.6020 HW1           1 RES     
    6301 HW2         30.5340    11.8130    12.5640 HW2           1 RES     
    6302 OW          30.6420    41.3810    11.4190 OW            1 RES     
    6303 HW1         31.3420    41.4730    12.1260 HW1           1 RES     
    6304 HW2         30.7560    42.1060    10.7390 HW2           1 RES     
    6305 OW          26.5220    21.8770    16.4060 OW            1 RES     
    6306 HW1         27.0590    22.7200    16.4150 HW1           1 RES     
    6307 HW2         25.9200    21.8740    15.6070 HW2           1 RES     
    6308 OW          25.1530     6.0710     5.5040 OW            1 RES     
    6309 HW1         25.8940     6.6270     5.1300 HW1           1 RES     
    6310 HW2         24.6190     5.6780     4.7540 HW2           1 RES     
    6311 OW           9.3650    14.0550    15.6180 OW            1 RES     
    6312 HW1          8.9750    13.1730    15.3580 HW1           1 RES     
    6313 HW2         10.1960    13.9070    16.1550 HW2           1 RES     
    6314 OW          38.2570    37.4140     6.6360 OW            1 RES     
    6315 HW1         37.8640    36.4940     6.6330 HW1           1 RES     
    6316 HW2         39.2390    37.3580     6.4580 HW2           1 RES     
    6317 OW          10.7850    36.4420    15.7110 OW            1 RES     
    6318 HW1         10.2770    35.9940    14.9760 HW1           1 RES     
    6319 HW2         11.7070    36.0580    15.7620 HW2           1 RES     
    6320 OW           7.7280    36.4540    15.7980 OW            1 RES     
    6321 HW1          7.4480    35.5590    16.1440 HW1           1 RES     
    6322 HW2          6.9370    37.0650    15.7730 HW2           1 RES     
    6323 OW          32.0900    24.0700     1.9600 OW            1 RES     
    6324 HW1         32.4380    23.6930     2.8170 HW1           1 RES     
    6325 HW2         31.1720    23.7140     1.7870 HW2           1 RES     
    6326 OW           3.6320    42.5090     8.7100 OW            1 RES     
    6327 HW1          3.0220    41.8320     9.1200 HW1           1 RES     
    6328 HW2          4.5790    42.2970     8.9550 HW2           1 RES     
    6329 OW           1.0790    40.0850     8.7990 OW            1 RES     
    6330 HW1          1.3480    40.4920     9.6710 HW1           1 RES     
    6331 HW2          0.2450    40.5250     8.4670 HW2           1 RES     
    6332 OW          27.0450    -1.3280    12.6410 OW            1 RES     
    6333 HW1         27.3290    -0.3720    12.5760 HW1           1 RES     
    6334 HW2         27.8530    -1.9180    12.6380 HW2           1 RES     
    6335 OW          14.3420    42.2220    13.6550 OW            1 RES     
    6336 HW1         14.6750    41.8760    12.7790 HW1           1 RES     
    6337 HW2         13.4550    42.6660    13.5250 HW2           1 RES     
    6338 OW          17.0100    21.1440    16.2820 OW            1 RES     
    6339 HW1         17.1740    20.9130    17.2400 HW1           1 RES     
    6340 HW2         17.0980    20.3210    15.7200 HW2           1 RES     
    6341 OW          26.5500    16.8370     8.4060 OW            1 RES     
    6342 HW1         25.7070    16.9030     7.8750 HW1           1 RES     
    6343 HW2         27.2120    17.5060     8.0680 HW2           1 RES     
    6344 OW          21.6810    -1.7240    10.8980 OW            1 RES     
    6345 HW1         21.2040    -1.1890    10.2020 HW1           1 RES     
    6346 HW2         21.0530    -2.3970    11.2900 HW2           1 RES     
    6347 OW          10.5790    -3.7790    14.0660 OW            1 RES     
    6348 HW1         10.7800    -4.3060    13.2410 HW1           1 RES     
    6349 HW2          9.9930    -4.3170    14.6720 HW2           1 RES     
    6350 OW           0.2130    36.6520     5.9710 OW            1 RES     
    6351 HW1          0.0690    37.0650     5.0720 HW1           1 RES     
    6352 HW2          0.2700    35.6580     5.8760 HW2           1 RES     
    6353 OW          36.2860     9.3420     9.7800 OW            1 RES     
    6354 HW1         36.9920     8.9960     9.1630 HW1           1 RES     
    6355 HW2         36.7150     9.8540    10.5240 HW2           1 RES     
    6356 OW          12.9160    40.5800    11.3510 OW            1 RES     
    6357 HW1         13.0930    39.7150    10.8820 HW1           1 RES     
    6358 HW2         13.0500    40.4600    12.3350 HW2           1 RES     
    6359 OW          -0.9370     3.1990     9.4060 OW            1 RES     
    6360 HW1         -0.8500     4.0330     9.9490 HW1           1 RES     
    6361 HW2         -1.6390     3.3280     8.7050 HW2           1 RES     
    6362 OW          23.5570    26.4240     8.0310 OW            1 RES     
    6363 HW1         23.3750    27.3510     7.7040 HW1           1 RES     
    6364 HW2         22.7150    25.8850     7.9930 HW2           1 RES     
    6365 OW          43.2240    -3.3340    11.5780 OW            1 RES     
    6366 HW1         42.5960    -2.9170    12.2340 HW1           1 RES     
    6367 HW2         43.0290    -4.3120    11.5050 HW2           1 RES     
    6368 OW          -1.4260    13.1530    11.8850 OW            1 RES     
    6369 HW1         -2.3890    13.2010    11.6210 HW1           1 RES     
    6370 HW2         -1.2130    12.2300    12.2040 HW2           1 RES     
    6371 OW           0.1040    43.2760     3.1840 OW            1 RES     
    6372 HW1          0.3290    42.5600     2.5240 HW1           1 RES     
    6373 HW2         -0.8800    43.2640     3.3670 HW2           1 RES     
    6374 OW          25.7400    34.3510    10.1840 OW            1 RES     
    6375 HW1         25.4710    33.9090    11.0390 HW1           1 RES     
    6376 HW2         25.9260    33.6530     9.4920 HW2           1 RES     
    6377 OW          31.9870     6.6980    11.4090 OW            1 RES     
    6378 HW1         31.7140     6.9310    12.3420 HW1           1 RES     
    6379 HW2         32.1770     7.5360    10.8970 HW2           1 RES     
    6380 OW          38.7700    40.5870    16.2750 OW            1 RES     
    6381 HW1         39.7470    40.7450    16.4160 HW1           1 RES     
    6382 HW2         38.2950    40.6350    17.1540 HW2           1 RES     
    6383 OW          13.2400    29.4580     6.4380 OW            1 RES     
    6384 HW1         12.5840    28.7610     6.7250 HW1           1 RES     
    6385 HW2         13.0410    30.3180     6.9100 HW2           1 RES     
    6386 OW          43.9030    22.0250    16.8820 OW            1 RES     
    6387 HW1         44.6270    22.6980    16.7350 HW1           1 RES     
    6388 HW2         43.0130    22.4790    16.8540 HW2           1 RES     
    6389 OW          15.9360    13.1080     4.4320 OW            1 RES     
    6390 HW1         15.8510    12.4060     3.7250 HW1           1 RES     
    6391 HW2         16.8810    13.4330     4.4670 HW2           1 RES     
    6392 OW          25.1770    23.8480     2.0150 OW            1 RES     
    6393 HW1         24.2410    23.4980     2.0110 HW1           1 RES     
    6394 HW2         25.8180    23.0870     1.9130 HW2           1 RES     
    6395 OW          20.9380     0.3740     1.7970 OW            1 RES     
    6396 HW1         21.5260     1.1820     1.7870 HW1           1 RES     
    6397 HW2         19.9800     0.6580     1.8480 HW2           1 RES     
    6398 OW          32.8570    36.2740     1.8980 OW            1 RES     
    6399 HW1         33.7830    36.2930     2.2720 HW1           1 RES     
    6400 HW2         32.5220    37.2100     1.7860 HW2           1 RES     
    6401 OW           6.2600    23.5780    15.6400 OW            1 RES     
    6402 HW1          5.9670    24.5030    15.4000 HW1           1 RES     
    6403 HW2          7.2380    23.4790    15.4550 HW2           1 RES     
    6404 OW          -0.8060    -1.4590    15.4100 OW            1 RES     
    6405 HW1         -0.8740    -0.4650    15.3360 HW1           1 RES     
    6406 HW2         -1.3430    -1.8850    14.6820 HW2           1 RES     
    6407 OW          38.6790    24.8620     8.6510 OW            1 RES     
    6408 HW1         38.1610    25.4370     9.2840 HW1           1 RES     
    6409 HW2         39.4010    24.3830     9.1500 HW2           1 RES     
    6410 OW          35.7690    28.6290     9.2230 OW            1 RES     
    6411 HW1         36.0040    29.1250     8.3890 HW1           1 RES     
    6412 HW2         36.2570    29.0300     9.9990 HW2           1 RES     
    6413 OW          26.1730    10.6580     5.2500 OW            1 RES     
    6414 HW1         25.3730    11.0510     5.7020 HW1           1 RES     
    6415 HW2         26.0700     9.6640     5.1930 HW2           1 RES     
    6416 OW           2.9790     1.7740     4.1510 OW            1 RES     
    6417 HW1          3.7220     1.3810     3.6110 HW1           1 RES     
    6418 HW2          2.1470     1.2360     4.0150 HW2           1 RES     
    6419 OW           5.9750    35.2310    11.0180 OW            1 RES     
    6420 HW1          5.2230    35.5690    10.4530 HW1           1 RES     
    6421 HW2          5.6040    34.7580    11.8180 HW2           1 RES     
    6422 OW          31.4480    17.5270    15.6850 OW            1 RES     
    6423 HW1         31.8580    16.6160    15.6800 HW1           1 RES     
    6424 HW2         30.4520    17.4450    15.6470 HW2           1 RES     
    6425 OW          31.2070    37.2420    15.1440 OW            1 RES     
    6426 HW1         31.3920    38.2240    15.1250 HW1           1 RES     
    6427 HW2         30.2430    37.0800    14.9320 HW2           1 RES     
    6428 OW          -4.5000    29.9370     2.0630 OW            1 RES     
    6429 HW1         -3.7170    30.0300     2.6780 HW1           1 RES     
    6430 HW2         -5.0900    30.7400     2.1510 HW2           1 RES     
    6431 OW          29.0080    12.9920    16.2980 OW            1 RES     
    6432 HW1         29.6110    12.5770    15.6180 HW1           1 RES     
    6433 HW2         28.6930    12.2910    16.9380 HW2           1 RES     
    6434 OW          41.9490    23.4990    12.8430 OW            1 RES     
    6435 HW1         42.2160    22.9030    13.6000 HW1           1 RES     
    6436 HW2         42.4630    23.2460    12.0230 HW2           1 RES     
    6437 OW          29.7180    10.3000    14.7570 OW            1 RES     
    6438 HW1         30.5860    10.7000    14.4650 HW1           1 RES     
    6439 HW2         29.0030    10.5380    14.0990 HW2           1 RES     
    6440 OW           6.5260    20.0640    15.9680 OW            1 RES     
    6441 HW1          6.4420    19.1210    16.2890 HW1           1 RES     
    6442 HW2          6.1840    20.1300    15.0310 HW2           1 RES     
    6443 OW           6.7650    31.4230    16.5700 OW            1 RES     
    6444 HW1          5.8780    31.7000    16.9350 HW1           1 RES     
    6445 HW2          7.4820    31.6440    17.2310 HW2           1 RES     
    6446 OW          11.2970    36.7720     8.1890 OW            1 RES     
    6447 HW1         12.1930    36.3420     8.2910 HW1           1 RES     
    6448 HW2         11.3480    37.4910     7.4960 HW2           1 RES     
    6449 OW           9.0990    24.2990     8.9680 OW            1 RES     
    6450 HW1          9.0430    25.0430     8.3040 HW1           1 RES     
    6451 HW2          9.3980    24.6610     9.8510 HW2           1 RES     
    6452 OW          25.9210     1.9580     7.4630 OW            1 RES     
    6453 HW1         26.1290     1.7840     8.4250 HW1           1 RES     
    6454 HW2         26.7690     1.9630     6.9330 HW2           1 RES     
    6455 OW          28.8650    -3.3650     4.4760 OW            1 RES     
    6456 HW1         29.1730    -4.3150     4.4660 HW1           1 RES     
    6457 HW2         29.6590    -2.7570     4.4960 HW2           1 RES     
    6458 OW          32.1810    28.1130    13.5720 OW            1 RES     
    6459 HW1         32.0490    27.6520    14.4490 HW1           1 RES     
    6460 HW2         32.3260    29.0900    13.7260 HW2           1 RES     
    6461 OW          24.4240     3.4400     6.2150 OW            1 RES     
    6462 HW1         23.8940     4.1550     6.6690 HW1           1 RES     
    6463 HW2         24.1030     3.3330     5.2740 HW2           1 RES     
    6464 OW          -2.8780    15.9420    12.8000 OW            1 RES     
    6465 HW1         -2.2430    16.7140    12.8130 HW1           1 RES     
    6466 HW2         -2.3620    15.0860    12.7540 HW2           1 RES     
    6467 OW          17.6030    41.0460     6.5060 OW            1 RES     
    6468 HW1         16.9380    41.7100     6.1670 HW1           1 RES     
    6469 HW2         17.4520    40.1640     6.0590 HW2           1 RES     
    6470 OW          -1.2710    34.6670    11.4850 OW            1 RES     
    6471 HW1         -1.8420    34.0070    10.9970 HW1           1 RES     
    6472 HW2         -1.8360    35.4310    11.7970 HW2           1 RES     
    6473 OW          33.1810    32.2830     7.1040 OW            1 RES     
    6474 HW1         34.0900    32.6840     6.9970 HW1           1 RES     
    6475 HW2         32.5260    33.0000     7.3450 HW2           1 RES     
    6476 OW          13.6490    12.8000    13.4880 OW            1 RES     
    6477 HW1         13.5350    11.9190    13.9460 HW1           1 RES     
    6478 HW2         12.8400    12.9950    12.9340 HW2           1 RES     
    6479 OW          11.2460    12.4700    14.3570 OW            1 RES     
    6480 HW1         10.5080    12.8040    13.7720 HW1           1 RES     
    6481 HW2         10.8580    12.0510    15.1770 HW2           1 RES     
    6482 OW           1.7620    34.9060     8.8080 OW            1 RES     
    6483 HW1          1.2290    35.4460     9.4580 HW1           1 RES     
    6484 HW2          2.6830    35.2900     8.7310 HW2           1 RES     
    6485 OW          26.4630    10.8400    10.5690 OW            1 RES     
    6486 HW1         26.8390     9.9430    10.7990 HW1           1 RES     
    6487 HW2         27.1990    11.5170    10.5490 HW2           1 RES     
    6488 OW          10.3460     1.2480     1.9680 OW            1 RES     
    6489 HW1         10.2080     0.2580     1.9370 HW1           1 RES     
    6490 HW2          9.4590     1.7070     2.0210 HW2           1 RES     
    6491 OW           0.9090    34.2640    14.5060 OW            1 RES     
    6492 HW1          0.6730    33.6300    15.2410 HW1           1 RES     
    6493 HW2          1.2000    35.1360    14.8990 HW2           1 RES     
    6494 OW          14.7710    18.9790     2.4280 OW            1 RES     
    6495 HW1         15.1440    18.7720     3.3320 HW1           1 RES     
    6496 HW2         14.3370    18.1600     2.0510 HW2           1 RES     
    6497 OW          -4.6840    29.7840    17.3970 OW            1 RES     
    6498 HW1         -5.2690    29.1500    16.8910 HW1           1 RES     
    6499 HW2         -4.3570    30.5000    16.7810 HW2           1 RES     
    6500 OW          -1.7000    27.9170     9.3620 OW            1 RES     
    6501 HW1         -2.5920    27.5310     9.5930 HW1           1 RES     
    6502 HW2         -0.9970    27.5040     9.9410 HW2           1 RES     
    6503 OW          33.2270    27.5630     6.4400 OW            1 RES     
    6504 HW1         33.8010    28.3570     6.6350 HW1           1 RES     
    6505 HW2         32.2640    27.8100     6.5550 HW2           1 RES     
    6506 OW          25.7180     5.0440     1.7860 OW            1 RES     
    6507 HW1         26.0840     5.8250     2.2920 HW1           1 RES     
    6508 HW2         24.8820     4.7210     2.2300 HW2           1 RES     
    6509 OW          13.3290    18.8110    13.4940 OW            1 RES     
    6510 HW1         12.8360    17.9790    13.7490 HW1           1 RES     
    6511 HW2         12.8280    19.2870    12.7710 HW2           1 RES     
    6512 OW          41.9320     4.0620     2.4720 OW            1 RES     
    6513 HW1         42.3780     3.4860     1.7870 HW1           1 RES     
    6514 HW2         41.2860     4.6780     2.0210 HW2           1 RES     
    6515 OW          36.4770    -3.6500    11.6320 OW            1 RES     
    6516 HW1         37.0180    -4.1230    12.3270 HW1           1 RES     
    6517 HW2         36.6280    -2.6640    11.7040 HW2           1 RES     
    6518 OW           8.1900    10.5400     8.5830 OW            1 RES     
    6519 HW1          7.6500    11.3800     8.6230 HW1           1 RES     
    6520 HW2          9.1620    10.7650     8.6460 HW2           1 RES     
    6521 OW          11.0380     8.4450     9.4840 OW            1 RES     
    6522 HW1         10.2960     9.0650     9.7350 HW1           1 RES     
    6523 HW2         10.6720     7.5240     9.3440 HW2           1 RES     
    6524 OW          20.8150    12.5370     8.2470 OW            1 RES     
    6525 HW1         21.1220    12.2380     7.3440 HW1           1 RES     
    6526 HW2         20.3630    11.7770     8.7150 HW2           1 RES     
    6527 OW          24.3870    30.7280     3.3570 OW            1 RES     
    6528 HW1         24.4010    30.0950     4.1300 HW1           1 RES     
    6529 HW2         25.2890    31.1480     3.2530 HW2           1 RES     
    6530 OW          23.9950    12.9350     8.1430 OW            1 RES     
    6531 HW1         23.6200    13.1120     9.0520 HW1           1 RES     
    6532 HW2         23.9480    13.7700     7.5940 HW2           1 RES     
    6533 OW          -2.8880    19.1290     4.3460 OW            1 RES     
    6534 HW1         -2.4500    18.2710     4.0810 HW1           1 RES     
    6535 HW2         -3.5940    19.3640     3.6770 HW2           1 RES     
    6536 OW          23.8850    18.0680     6.6270 OW            1 RES     
    6537 HW1         23.1090    18.5810     6.2630 HW1           1 RES     
    6538 HW2         24.6950    18.6540     6.6470 HW2           1 RES     
    6539 OW          40.3380    31.3870    16.3870 OW            1 RES     
    6540 HW1         39.7340    30.6770    16.0250 HW1           1 RES     
    6541 HW2         40.1530    31.5170    17.3620 HW2           1 RES     
    6542 OW          15.5590    15.0970    11.5870 OW            1 RES     
    6543 HW1         16.0680    15.8050    11.0980 HW1           1 RES     
    6544 HW2         15.9850    14.9340    12.4770 HW2           1 RES     
    6545 OW           1.1040    38.9190    15.8980 OW            1 RES     
    6546 HW1          2.0480    38.6320    15.7400 HW1           1 RES     
    6547 HW2          1.0700    39.9150    15.9930 HW2           1 RES     
    6548 OW          15.2280    20.7710     8.3170 OW            1 RES     
    6549 HW1         15.3480    19.8400     7.9750 HW1           1 RES     
    6550 HW2         14.3970    21.1670     7.9260 HW2           1 RES     
    6551 OW          38.8110    38.7840    11.6290 OW            1 RES     
    6552 HW1         38.5560    39.2460    12.4780 HW1           1 RES     
    6553 HW2         39.5140    39.3170    11.1570 HW2           1 RES     
    6554 OW          34.3580    27.2090    13.8410 OW            1 RES     
    6555 HW1         33.7720    26.6200    13.2860 HW1           1 RES     
    6556 HW2         35.0190    27.6740    13.2510 HW2           1 RES     
    6557 OW           3.5610     7.6450     3.2000 OW            1 RES     
    6558 HW1          3.8520     8.4450     2.6780 HW1           1 RES     
    6559 HW2          3.8640     7.7360     4.1480 HW2           1 RES     
    6560 OW          36.6010    11.5010     7.8250 OW            1 RES     
    6561 HW1         36.9320    10.5780     7.6350 HW1           1 RES     
    6562 HW2         35.6720    11.4530     8.1930 HW2           1 RES     
    6563 OW          30.1830    -0.1150     7.4270 OW            1 RES     
    6564 HW1         30.9220     0.5510     7.3320 HW1           1 RES     
    6565 HW2         30.4730    -0.9910     7.0420 HW2           1 RES     
    6566 OW          37.0190     1.5650     6.5510 OW            1 RES     
    6567 HW1         37.2120     0.7850     7.1450 HW1           1 RES     
    6568 HW2         37.0830     1.2800     5.5940 HW2           1 RES     
    6569 OW          45.3870    -2.8990     4.6600 OW            1 RES     
    6570 HW1         44.7530    -2.6510     3.9280 HW1           1 RES     
    6571 HW2         44.9510    -3.5620     5.2690 HW2           1 RES     
    6572 OW          39.2070    15.9560     4.2660 OW            1 RES     
    6573 HW1         40.0670    15.4470     4.2680 HW1           1 RES     
    6574 HW2         39.3990    16.9370     4.2790 HW2           1 RES     
    6575 OW           2.4370    11.2790     5.1950 OW            1 RES     
    6576 HW1          2.1550    11.4730     6.1340 HW1           1 RES     
    6577 HW2          1.6290    11.1050     4.6320 HW2           1 RES     
    6578 OW          13.8810    36.1070     6.4210 OW            1 RES     
    6579 HW1         12.9610    36.4400     6.2180 HW1           1 RES     
    6580 HW2         14.4150    36.0650     5.5760 HW2           1 RES     
    6581 OW          -4.1170    24.9300     8.0000 OW            1 RES     
    6582 HW1         -4.2450    24.4870     7.1140 HW1           1 RES     
    6583 HW2         -4.6570    25.7710     8.0350 HW2           1 RES     
    6584 OW          11.1370    34.8000     4.3990 OW            1 RES     
    6585 HW1         10.3500    35.2120     4.8560 HW1           1 RES     
    6586 HW2         11.9590    35.3320     4.6040 HW2           1 RES     
    6587 OW          13.9330    26.0180    13.5130 OW            1 RES     
    6588 HW1         14.8450    25.8070    13.8620 HW1           1 RES     
    6589 HW2         13.4150    25.1700    13.3990 HW2           1 RES     
    6590 OW           1.2980    19.0660    17.3170 OW            1 RES     
    6591 HW1          2.0460    18.4090    17.3980 HW1           1 RES     
    6592 HW2          1.6730    19.9830    17.1750 HW2           1 RES     
    6593 OW           8.3450    11.0290    12.5570 OW            1 RES     
    6594 HW1          8.6790    11.7350    13.1810 HW1           1 RES     
    6595 HW2          9.0920    10.4030    12.3320 HW2           1 RES     
    6596 OW          30.5420    21.9060     6.7520 OW            1 RES     
    6597 HW1         30.1290    22.7350     7.1260 HW1           1 RES     
    6598 HW2         30.1610    21.1050     7.2160 HW2           1 RES     
    6599 OW          -5.9070    17.3580     8.8050 OW            1 RES     
    6600 HW1         -5.0950    17.8470     8.4880 HW1           1 RES     
    6601 HW2         -5.7600    16.3730     8.7180 HW2           1 RES     
    6602 OW          17.0470    -2.5620    17.3970 OW            1 RES     
    6603 HW1         17.0540    -3.2490    16.6710 HW1           1 RES     
    6604 HW2         17.0150    -1.6480    16.9920 HW2           1 RES     
    6605 OW          39.9590    12.8710    15.7000 OW            1 RES     
    6606 HW1         40.1370    12.7360    16.6740 HW1           1 RES     
    6607 HW2         39.2180    13.5340    15.5850 HW2           1 RES     
    6608 OW           3.5740    -3.5050     2.7810 OW            1 RES     
    6609 HW1          2.8620    -4.2050     2.8270 HW1           1 RES     
    6610 HW2          4.3190    -3.7450     3.4040 HW2           1 RES     
    6611 OW           5.5270     5.4080    15.3090 OW            1 RES     
    6612 HW1          5.8990     6.0720    14.6610 HW1           1 RES     
    6613 HW2          4.5940     5.6700    15.5570 HW2           1 RES     
    6614 OW          40.4190    32.0690     7.9780 OW            1 RES     
    6615 HW1         41.0960    31.6090     7.4040 HW1           1 RES     
    6616 HW2         39.9260    32.7470     7.4340 HW2           1 RES     
    6617 OW           8.6620    16.1380    10.9460 OW            1 RES     
    6618 HW1          9.3890    15.6200    10.4960 HW1           1 RES     
    6619 HW2          8.2340    15.5700    11.6490 HW2           1 RES     
    6620 OW          39.4720    16.7730     6.5650 OW            1 RES     
    6621 HW1         38.6770    17.3280     6.3230 HW1           1 RES     
    6622 HW2         40.2310    17.3720     6.8220 HW2           1 RES     
    6623 OW          -2.3480    11.7600     4.0460 OW            1 RES     
    6624 HW1         -1.8100    11.3100     3.3350 HW1           1 RES     
    6625 HW2         -3.0020    11.1100     4.4320 HW2           1 RES     
    6626 OW          13.2980    35.2570     2.1140 OW            1 RES     
    6627 HW1         13.3130    34.3130     1.7870 HW1           1 RES     
    6628 HW2         13.8530    35.3330     2.9430 HW2           1 RES     
    6629 OW           5.7290     1.4140     6.0890 OW            1 RES     
    6630 HW1          5.7350     0.8650     6.9240 HW1           1 RES     
    6631 HW2          4.8120     1.7860     5.9400 HW2           1 RES     
    6632 OW          -4.5060    -2.5400    14.3200 OW            1 RES     
    6633 HW1         -3.7810    -3.2290    14.3040 HW1           1 RES     
    6634 HW2         -4.7520    -2.3370    15.2680 HW2           1 RES     
    6635 OW          -3.0020    34.3050     6.3010 OW            1 RES     
    6636 HW1         -3.3690    34.2300     7.2270 HW1           1 RES     
    6637 HW2         -2.4730    33.4840     6.0830 HW2           1 RES     
    6638 OW          28.4370    -1.6070     5.9180 OW            1 RES     
    6639 HW1         28.0170    -1.1220     5.1510 HW1           1 RES     
    6640 HW2         27.7310    -2.0960     6.4300 HW2           1 RES     
    6641 OW          24.3010     3.4840    10.3030 OW            1 RES     
    6642 HW1         24.0430     2.8240     9.5970 HW1           1 RES     
    6643 HW2         25.1040     3.1480    10.7960 HW2           1 RES     
    6644 OW          23.8020    33.9280     8.9100 OW            1 RES     
    6645 HW1         22.9290    33.7440     8.4590 HW1           1 RES     
    6646 HW2         24.2100    34.7550     8.5250 HW2           1 RES     
    6647 OW           9.3780     1.2040     4.8460 OW            1 RES     
    6648 HW1          8.8280     0.9350     4.0570 HW1           1 RES     
    6649 HW2          9.1980     2.1630     5.0670 HW2           1 RES     
    6650 OW          41.6430     0.7720     2.5590 OW            1 RES     
    6651 HW1         41.8730     0.1040     1.8520 HW1           1 RES     
    6652 HW2         41.1110     1.5160     2.1550 HW2           1 RES     
    6653 OW          44.0990    19.3940    10.2650 OW            1 RES     
    6654 HW1         44.6180    19.7680    11.0330 HW1           1 RES     
    6655 HW2         43.3260    18.8620    10.6110 HW2           1 RES     
    6656 OW           2.2160    38.4040     9.6520 OW            1 RES     
    6657 HW1          2.4140    37.4270     9.5790 HW1           1 RES     
    6658 HW2          2.7660    38.8020    10.3870 HW2           1 RES     
    6659 OW           2.1730    37.6970     4.9590 OW            1 RES     
    6660 HW1          1.8790    38.1000     4.0940 HW1           1 RES     
    6661 HW2          2.2290    36.7030     4.8620 HW2           1 RES     
    6662 OW           4.9910    -1.8040    14.1730 OW            1 RES     
    6663 HW1          5.3090    -0.8940    13.9090 HW1           1 RES     
    6664 HW2          5.3620    -2.4840    13.5410 HW2           1 RES     
    6665 OW          28.3980    37.8970     9.2190 OW            1 RES     
    6666 HW1         29.3830    37.9940     9.3610 HW1           1 RES     
    6667 HW2         28.1070    38.4990     8.4760 HW2           1 RES     
    6668 OW          -6.0450    32.9150    17.0110 OW            1 RES     
    6669 HW1         -5.1510    32.5270    17.2330 HW1           1 RES     
    6670 HW2         -5.9380    33.8740    16.7480 HW2           1 RES     
    6671 OW          26.3260    31.0000    12.4220 OW            1 RES     
    6672 HW1         25.3340    30.8970    12.3560 HW1           1 RES     
    6673 HW2         26.5800    31.9400    12.1900 HW2           1 RES     
    6674 OW          31.0360    21.7130    15.3950 OW            1 RES     
    6675 HW1         31.2770    21.2790    16.2620 HW1           1 RES     
    6676 HW2         30.2810    21.2120    14.9700 HW2           1 RES     
    6677 OW           7.3950    -0.7570    11.8050 OW            1 RES     
    6678 HW1          6.7910    -0.4140    11.0850 HW1           1 RES     
    6679 HW2          6.8830    -1.3720    12.4050 HW2           1 RES     
    6680 OW          28.8430    40.1030    15.5330 OW            1 RES     
    6681 HW1         29.6340    39.4940    15.4950 HW1           1 RES     
    6682 HW2         29.1510    41.0410    15.6920 HW2           1 RES     
    6683 OW          20.2750    23.0770     8.3890 OW            1 RES     
    6684 HW1         21.1630    23.5340     8.3540 HW1           1 RES     
    6685 HW2         20.4090    22.0860     8.3970 HW2           1 RES     
    6686 OW          42.8750    -0.4760    11.0450 OW            1 RES     
    6687 HW1         43.3590    -1.3000    10.7510 HW1           1 RES     
    6688 HW2         41.8880    -0.6300    10.9850 HW2           1 RES     
    6689 OW           9.7480    20.0330     5.3080 OW            1 RES     
    6690 HW1          9.9760    19.9350     6.2760 HW1           1 RES     
    6691 HW2         10.3360    19.4340     4.7640 HW2           1 RES     
    6692 OW          21.1820    16.3300    16.5140 OW            1 RES     
    6693 HW1         20.2280    16.4550    16.2460 HW1           1 RES     
    6694 HW2         21.4510    15.3790    16.3590 HW2           1 RES     
    6695 OW          38.9510    -3.5230    14.7450 OW            1 RES     
    6696 HW1         38.1620    -2.9800    14.4600 HW1           1 RES     
    6697 HW2         39.7010    -2.9140    15.0010 HW2           1 RES     
    6698 OW           8.8840     6.9430    11.4480 OW            1 RES     
    6699 HW1          8.8230     6.0700    11.9320 HW1           1 RES     
    6700 HW2          9.8430     7.2130    11.3670 HW2           1 RES     
    6701 OW          20.7020    25.2380     7.0420 OW            1 RES     
    6702 HW1         21.3410    25.4900     6.3150 HW1           1 RES     
    6703 HW2         20.0850    24.5240     6.7110 HW2           1 RES     
    6704 OW          14.6860    15.6460    14.2680 OW            1 RES     
    6705 HW1         13.7870    16.0730    14.3520 HW1           1 RES     
    6706 HW2         14.5840    14.6510    14.2640 HW2           1 RES     
    6707 OW          12.0330    27.9270     4.0100 OW            1 RES     
    6708 HW1         12.3240    26.9710     3.9850 HW1           1 RES     
    6709 HW2         12.6900    28.4620     4.5420 HW2           1 RES     
    6710 OW          14.4130    40.8200     9.1010 OW            1 RES     
    6711 HW1         14.9920    41.2940     8.4390 HW1           1 RES     
    6712 HW2         14.9820    40.2470     9.6920 HW2           1 RES     
    6713 OW          11.3190    18.0240     7.7500 OW            1 RES     
    6714 HW1         12.1670    17.9810     7.2230 HW1           1 RES     
    6715 HW2         11.0800    18.9790     7.9210 HW2           1 RES     
    6716 OW          -2.6540    41.6920    16.6470 OW            1 RES     
    6717 HW1         -2.6630    42.1020    15.7360 HW1           1 RES     
    6718 HW2         -3.4500    42.0070    17.1630 HW2           1 RES     
    6719 OW          18.2050    25.6830    12.5560 OW            1 RES     
    6720 HW1         19.2010    25.6100    12.5310 HW1           1 RES     
    6721 HW2         17.9260    26.5760    12.2020 HW2           1 RES     
    6722 OW          -3.3100    24.8820     3.1050 OW            1 RES     
    6723 HW1         -4.1340    24.8860     2.5390 HW1           1 RES     
    6724 HW2         -2.7490    25.6800     2.8840 HW2           1 RES     
    6725 OW          -1.0910    40.5770     6.6660 OW            1 RES     
    6726 HW1         -1.3150    41.5240     6.4380 HW1           1 RES     
    6727 HW2         -0.8510    40.0800     5.8320 HW2           1 RES     
    6728 OW          45.3670    14.3830    10.1300 OW            1 RES     
    6729 HW1         44.4990    14.8650    10.0200 HW1           1 RES     
    6730 HW2         45.4040    13.6120     9.4940 HW2           1 RES     
    6731 OW          25.1310     6.2970    15.2120 OW            1 RES     
    6732 HW1         25.9980     6.3070    15.7080 HW1           1 RES     
    6733 HW2         25.2390     6.7720    14.3390 HW2           1 RES     
    6734 OW          28.0630    37.9240     5.7250 OW            1 RES     
    6735 HW1         28.8940    38.0650     5.1880 HW1           1 RES     
    6736 HW2         28.0720    37.0040     6.1190 HW2           1 RES     
    6737 OW          21.1280    37.4390     3.1600 OW            1 RES     
    6738 HW1         20.3020    37.8350     2.7590 HW1           1 RES     
    6739 HW2         21.9130    38.0210     2.9490 HW2           1 RES     
    6740 OW          33.3300    10.3960    12.7100 OW            1 RES     
    6741 HW1         33.6180    11.3310    12.9130 HW1           1 RES     
    6742 HW2         34.0650     9.7600    12.9460 HW2           1 RES     
    6743 OW          43.1420    29.6980    17.3690 OW            1 RES     
    6744 HW1         42.3930    29.0380    17.3970 HW1           1 RES     
    6745 HW2         42.9570    30.3840    16.6650 HW2           1 RES     
    6746 OW          12.7490     6.0660    11.5990 OW            1 RES     
    6747 HW1         13.3970     5.4980    11.0920 HW1           1 RES     
    6748 HW2         12.8350     5.8780    12.5770 HW2           1 RES     
    6749 OW          25.2490     0.4300    14.9330 OW            1 RES     
    6750 HW1         26.2410     0.5530    14.9430 HW1           1 RES     
    6751 HW2         25.0220    -0.4790    15.2830 HW2           1 RES     
    6752 OW          20.2210    23.1910    14.3500 OW            1 RES     
    6753 HW1         21.0430    23.6750    14.6480 HW1           1 RES     
    6754 HW2         19.4880    23.8490    14.1800 HW2           1 RES     
    6755 OW          31.3940     2.6480    17.3970 OW            1 RES     
    6756 HW1         30.9220     3.1080    16.6460 HW1           1 RES     
    6757 HW2         32.3670     2.8810    17.3730 HW2           1 RES     
    6758 OW          13.1480     8.6710     8.0980 OW            1 RES     
    6759 HW1         12.8020     8.2400     7.2650 HW1           1 RES     
    6760 HW2         13.1030     8.0180     8.8540 HW2           1 RES     
    6761 OW          24.6160    38.1100    10.0330 OW            1 RES     
    6762 HW1         24.5340    37.5880    10.8810 HW1           1 RES     
    6763 HW2         23.7920    38.6600     9.8980 HW2           1 RES     
    6764 OW          41.5600    33.7300     9.3340 OW            1 RES     
    6765 HW1         40.6480    34.0390     9.0650 HW1           1 RES     
    6766 HW2         42.1830    33.8100     8.5560 HW2           1 RES     
    6767 OW          25.9280    16.3540    10.4620 OW            1 RES     
    6768 HW1         25.1280    15.7800    10.6330 HW1           1 RES     
    6769 HW2         26.7360    15.7750    10.3480 HW2           1 RES     
    6770 OW          -1.0100    -3.4690     7.4680 OW            1 RES     
    6771 HW1         -0.8400    -4.0120     8.2900 HW1           1 RES     
    6772 HW2         -0.2070    -3.5020     6.8730 HW2           1 RES     
    6773 OW          25.4410    -2.0020    16.8150 OW            1 RES     
    6774 HW1         26.1190    -2.5710    17.2780 HW1           1 RES     
    6775 HW2         24.5220    -2.2860    17.0910 HW2           1 RES     
    6776 OW          17.3010     7.9380     7.3660 OW            1 RES     
    6777 HW1         16.3450     8.1110     7.5990 HW1           1 RES     
    6778 HW2         17.3890     7.0200     6.9790 HW2           1 RES     
    6779 OW           1.1490    18.4160    15.2210 OW            1 RES     
    6780 HW1          2.0300    18.8870    15.2500 HW1           1 RES     
    6781 HW2          0.5570    18.8560    14.5450 HW2           1 RES     
    6782 OW          16.8070     3.4520    10.9240 OW            1 RES     
    6783 HW1         17.5690     3.5110    10.2800 HW1           1 RES     
    6784 HW2         16.8220     2.5620    11.3790 HW2           1 RES     
    6785 OW          -0.5060    16.6070     2.1310 OW            1 RES     
    6786 HW1         -0.9410    15.8200     2.5670 HW1           1 RES     
    6787 HW2         -0.6230    17.4160     2.7080 HW2           1 RES     
    6788 OW          -2.4830    39.9400     3.0910 OW            1 RES     
    6789 HW1         -1.9170    40.4430     3.7430 HW1           1 RES     
    6790 HW2         -2.0020    39.1140     2.7980 HW2           1 RES     
    6791 OW          -0.9370    -0.7490     8.3870 OW            1 RES     
    6792 HW1         -1.1410     0.2130     8.2130 HW1           1 RES     
    6793 HW2         -1.0240    -0.9380     9.3650 HW2           1 RES     
    6794 OW          39.8380    26.1360    15.3510 OW            1 RES     
    6795 HW1         40.7300    25.7640    15.6040 HW1           1 RES     
    6796 HW2         39.1350    25.7580    15.9540 HW2           1 RES     
    6797 OW          38.1540    33.6110     5.1580 OW            1 RES     
    6798 HW1         37.6360    33.6720     6.0100 HW1           1 RES     
    6799 HW2         38.8290    32.8760     5.2290 HW2           1 RES     
    6800 OW          -3.2210    31.1590    14.3300 OW            1 RES     
    6801 HW1         -3.5570    30.2180    14.3510 HW1           1 RES     
    6802 HW2         -3.8630    31.7320    13.8210 HW2           1 RES     
    6803 OW          27.5250     7.8560     8.6570 OW            1 RES     
    6804 HW1         27.3990     8.7800     9.0170 HW1           1 RES     
    6805 HW2         26.8720     7.6940     7.9170 HW2           1 RES     
    6806 OW          25.5210    28.8290     6.2030 OW            1 RES     
    6807 HW1         24.9270    29.6290     6.2830 HW1           1 RES     
    6808 HW2         25.4440    28.4470     5.2820 HW2           1 RES     
    6809 OW          12.7810    19.5600     3.1950 OW            1 RES     
    6810 HW1         12.8510    18.6920     3.6850 HW1           1 RES     
    6811 HW2         13.3990    20.2290     3.6090 HW2           1 RES     
    6812 OW          32.5340    10.0410    15.2490 OW            1 RES     
    6813 HW1         32.5570     9.3790    14.5010 HW1           1 RES     
    6814 HW2         33.4260    10.0650    15.7010 HW2           1 RES     
    6815 OW          -3.2060    18.3620     9.4920 OW            1 RES     
    6816 HW1         -3.5980    18.9550    10.1950 HW1           1 RES     
    6817 HW2         -2.5660    18.8870     8.9310 HW2           1 RES     
    6818 OW          30.9140    -3.8210    12.6150 OW            1 RES     
    6819 HW1         30.1170    -4.2830    12.2250 HW1           1 RES     
    6820 HW2         31.7440    -4.3170    12.3610 HW2           1 RES     
    6821 OW           1.0040    33.3050    11.0260 OW            1 RES     
    6822 HW1          1.5320    32.9430    11.7940 HW1           1 RES     
    6823 HW2          0.2520    32.6820    10.8140 HW2           1 RES     
    6824 OW          30.9520    38.7400    10.8700 OW            1 RES     
    6825 HW1         31.6550    39.4180    11.0810 HW1           1 RES     
    6826 HW2         30.0570    39.0910    11.1450 HW2           1 RES     
    6827 OW          17.6410     7.5410    13.9990 OW            1 RES     
    6828 HW1         16.7950     8.0060    14.2560 HW1           1 RES     
    6829 HW2         17.4280     6.6280    13.6500 HW2           1 RES     
    6830 OW          15.6130    23.6270     6.4160 OW            1 RES     
    6831 HW1         15.1760    24.3150     6.9940 HW1           1 RES     
    6832 HW2         16.5410    23.4530     6.7460 HW2           1 RES     
    6833 OW          26.5530    37.1470    13.0870 OW            1 RES     
    6834 HW1         26.5040    36.2600    13.5460 HW1           1 RES     
    6835 HW2         25.9960    37.8110    13.5860 HW2           1 RES     
    6836 OW          19.3340    43.2590    16.8280 OW            1 RES     
    6837 HW1         20.1560    43.2760    17.3970 HW1           1 RES     
    6838 HW2         18.5450    43.0090    17.3900 HW2           1 RES     
    6839 OW          35.5390    10.7650    15.4890 OW            1 RES     
    6840 HW1         35.4150    10.1530    14.7090 HW1           1 RES     
    6841 HW2         35.5410    11.7140    15.1730 HW2           1 RES     
    6842 OW           7.8610    10.9980     4.4450 OW            1 RES     
    6843 HW1          8.3840    10.1770     4.2160 HW1           1 RES     
    6844 HW2          7.6900    11.0200     5.4300 HW2           1 RES     
    6845 OW          26.6160     3.5170    12.3680 OW            1 RES     
    6846 HW1         26.4390     4.4640    12.1010 HW1           1 RES     
    6847 HW2         27.5290     3.2490    12.0630 HW2           1 RES     
    6848 OW          27.8640    23.3780     2.6760 OW            1 RES     
    6849 HW1         28.4150    23.6460     3.4660 HW1           1 RES     
    6850 HW2         27.9190    22.3870     2.5520 HW2           1 RES     
    6851 OW          30.5190    36.0210    16.8410 OW            1 RES     
    6852 HW1         29.8230    35.5580    17.3890 HW1           1 RES     
    6853 HW2         31.3510    36.1340    17.3840 HW2           1 RES     
    6854 OW          25.6090    42.4380    15.6450 OW            1 RES     
    6855 HW1         24.9840    41.6580    15.6400 HW1           1 RES     
    6856 HW2         25.1000    43.2740    15.4380 HW2           1 RES     
    6857 OW           8.6730     3.7830    12.2880 OW            1 RES     
    6858 HW1          9.1580     2.9120    12.3530 HW1           1 RES     
    6859 HW2          8.7130     4.2540    13.1700 HW2           1 RES     
    6860 OW          26.5110    36.6900     9.0450 OW            1 RES     
    6861 HW1         25.5970    36.3210     9.2100 HW1           1 RES     
    6862 HW2         26.5990    36.9460     8.0820 HW2           1 RES     
    6863 OW          -1.3400     9.6440     5.7090 OW            1 RES     
    6864 HW1         -1.0260    10.5900     5.6490 HW1           1 RES     
    6865 HW2         -2.2380     9.6170     6.1500 HW2           1 RES     
    6866 OW          -6.0610    30.1450    11.2760 OW            1 RES     
    6867 HW1         -5.1080    29.9810    11.0240 HW1           1 RES     
    6868 HW2         -6.1060    30.8820    11.9510 HW2           1 RES     
    6869 OW          39.7250    -1.4000     8.7740 OW            1 RES     
    6870 HW1         38.9980    -0.8210     8.4050 HW1           1 RES     
    6871 HW2         39.7610    -2.2570     8.2600 HW2           1 RES     
    6872 OW          23.4850    11.7720    13.2240 OW            1 RES     
    6873 HW1         24.3910    12.1820    13.3300 HW1           1 RES     
    6874 HW2         22.7920    12.4930    13.2070 HW2           1 RES     
    6875 OW           2.3870     8.0140     5.7580 OW            1 RES     
    6876 HW1          2.4580     7.7550     6.7210 HW1           1 RES     
    6877 HW2          2.6000     8.9870     5.6570 HW2           1 RES     
    6878 OW           2.0790     6.6620    13.8480 OW            1 RES     
    6879 HW1          3.0670     6.5240    13.9120 HW1           1 RES     
    6880 HW2          1.8760     7.6410    13.8790 HW2           1 RES     
    6881 OW          26.5520    -4.3170    12.7030 OW            1 RES     
    6882 HW1         26.2090    -3.3790    12.6570 HW1           1 RES     
    6883 HW2         27.5480    -4.3130    12.6080 HW2           1 RES     
    6884 OW          23.1990    29.3330     9.3850 OW            1 RES     
    6885 HW1         22.7820    28.4910     9.7260 HW1           1 RES     
    6886 HW2         24.1000    29.1280     9.0010 HW2           1 RES     
    6887 OW          -0.5450    16.8560    16.8730 OW            1 RES     
    6888 HW1         -0.3270    16.8500    15.8980 HW1           1 RES     
    6889 HW2          0.2670    17.1150    17.3960 HW2           1 RES     
    6890 OW           1.1960    38.0200    13.0230 OW            1 RES     
    6891 HW1          1.8640    38.2510    12.3160 HW1           1 RES     
    6892 HW2          1.1660    38.7510    13.7050 HW2           1 RES     
    6893 OW          -2.9360    20.1890    17.3960 OW            1 RES     
    6894 HW1         -2.7940    21.1730    17.2970 HW1           1 RES     
    6895 HW2         -2.0780    19.7080    17.2180 HW2           1 RES     
    6896 OW          31.6840    42.5710     1.9570 OW            1 RES     
    6897 HW1         32.4400    42.9690     2.4760 HW1           1 RES     
    6898 HW2         30.9920    43.2720     1.7860 HW2           1 RES     
    6899 OW          13.7060    -2.0240    15.4150 OW            1 RES     
    6900 HW1         14.3830    -2.7580    15.4510 HW1           1 RES     
    6901 HW2         12.7910    -2.4080    15.5380 HW2           1 RES     
    6902 OW          41.2880    37.9810    10.8750 OW            1 RES     
    6903 HW1         41.2970    37.8030     9.8910 HW1           1 RES     
    6904 HW2         40.8100    37.2380    11.3440 HW2           1 RES     
    6905 OW           5.5260     4.7250    10.8970 OW            1 RES     
    6906 HW1          6.2270     4.0870    10.5800 HW1           1 RES     
    6907 HW2          5.3620     5.4170    10.1940 HW2           1 RES     
    6908 OW          41.4150     2.8680     6.8550 OW            1 RES     
    6909 HW1         40.5840     3.1360     6.3680 HW1           1 RES     
    6910 HW2         41.3080     3.0630     7.8300 HW2           1 RES     
    6911 OW          18.0120    39.1300     9.8110 OW            1 RES     
    6912 HW1         17.0380    39.3510     9.7820 HW1           1 RES     
    6913 HW2         18.1310    38.1380     9.7580 HW2           1 RES     
    6914 OW          -6.1080    -0.5740     7.4670 OW            1 RES     
    6915 HW1         -5.7230     0.2100     7.9520 HW1           1 RES     
    6916 HW2         -5.3790    -1.2250     7.2540 HW2           1 RES     
    6917 OW          37.5200     0.7660     1.7930 OW            1 RES     
    6918 HW1         36.8620     0.0720     2.0830 HW1           1 RES     
    6919 HW2         37.3780     1.6020     2.3240 HW2           1 RES     
    6920 OW           2.1430    25.9350     4.7400 OW            1 RES     
    6921 HW1          2.7450    25.7750     5.5210 HW1           1 RES     
    6922 HW2          1.2800    26.3280     5.0590 HW2           1 RES     
    6923 OW          34.6860     4.9780     4.8080 OW            1 RES     
    6924 HW1         35.3280     5.7340     4.9310 HW1           1 RES     
    6925 HW2         35.0090     4.1790     5.3160 HW2           1 RES     
    6926 OW          39.5700    43.2760    15.6330 OW            1 RES     
    6927 HW1         38.7910    42.7030    15.3810 HW1           1 RES     
    6928 HW2         40.3960    42.7140    15.6790 HW2           1 RES     
    6929 OW           0.7840    35.4800    11.7890 OW            1 RES     
    6930 HW1          1.3350    35.0220    12.4860 HW1           1 RES     
    6931 HW2          1.2540    36.3080    11.4820 HW2           1 RES     
    6932 OW          33.0210    20.4040    13.5890 OW            1 RES     
    6933 HW1         32.8550    21.3550    13.8470 HW1           1 RES     
    6934 HW2         32.3380    20.1150    12.9190 HW2           1 RES     
    6935 OW          22.4750    22.3910     7.0070 OW            1 RES     
    6936 HW1         22.9160    23.2870     7.0470 HW1           1 RES     
    6937 HW2         22.0040    22.2910     6.1300 HW2           1 RES     
    6938 OW          34.5460    23.5270    15.7680 OW            1 RES     
    6939 HW1         34.2210    22.5830    15.7190 HW1           1 RES     
    6940 HW2         33.7760    24.1520    15.6330 HW2           1 RES     
    6941 OW          -5.0980    12.6010    14.3940 OW            1 RES     
    6942 HW1         -6.0920    12.6060    14.4920 HW1           1 RES     
    6943 HW2         -4.7480    13.5330    14.4920 HW2           1 RES     
    6944 OW          14.6460     6.4510     8.9140 OW            1 RES     
    6945 HW1         14.2170     5.5520     8.9870 HW1           1 RES     
    6946 HW2         14.6530     6.7410     7.9560 HW2           1 RES     
    6947 OW          17.0940    16.4350    14.6740 OW            1 RES     
    6948 HW1         16.3740    17.1180    14.5520 HW1           1 RES     
    6949 HW2         17.9800    16.8940    14.7470 HW2           1 RES     
    6950 OW          -6.1070     9.3900     5.8690 OW            1 RES     
    6951 HW1         -6.0390     8.4900     5.4410 HW1           1 RES     
    6952 HW2         -5.5030     9.4270     6.6650 HW2           1 RES     
    6953 OW          34.0140     8.7750    10.3270 OW            1 RES     
    6954 HW1         34.0690     9.4720     9.6130 HW1           1 RES     
    6955 HW2         34.5760     7.9890    10.0700 HW2           1 RES     
    6956 OW          37.1610     2.2200    13.7400 OW            1 RES     
    6957 HW1         37.9550     1.9880    13.1800 HW1           1 RES     
    6958 HW2         36.9610     3.1960    13.6490 HW2           1 RES     
    6959 OW          10.8110     3.6760     7.1240 OW            1 RES     
    6960 HW1         10.9390     3.5710     8.1090 HW1           1 RES     
    6961 HW2         11.4880     3.1230     6.6390 HW2           1 RES     
    6962 OW          30.5710     3.6750     8.8810 OW            1 RES     
    6963 HW1         29.9910     3.5380     9.6830 HW1           1 RES     
    6964 HW2         31.3990     4.1680     9.1480 HW2           1 RES     
    6965 OW          -2.1290     2.1250     6.6940 OW            1 RES     
    6966 HW1         -3.0470     2.0890     7.0870 HW1           1 RES     
    6967 HW2         -1.9830     1.3260     6.1110 HW2           1 RES     
    6968 OW          35.3750    -1.7830     8.9240 OW            1 RES     
    6969 HW1         35.2620    -2.4720     8.2090 HW1           1 RES     
    6970 HW2         35.6370    -2.2300     9.7790 HW2           1 RES     
    6971 OW           7.4210    14.2560     9.3640 OW            1 RES     
    6972 HW1          7.5930    15.1010     8.8590 HW1           1 RES     
    6973 HW2          8.0280    13.5360     9.0270 HW2           1 RES     
    6974 OW          16.3570    18.2860    16.7910 OW            1 RES     
    6975 HW1         15.8210    19.0750    17.0880 HW1           1 RES     
    6976 HW2         17.3110    18.4080    17.0650 HW2           1 RES     
    6977 OW           4.2110    37.3320    17.1490 OW            1 RES     
    6978 HW1          4.0000    38.2780    17.3930 HW1           1 RES     
    6979 HW2          3.4110    36.7570    17.3190 HW2           1 RES     
    6980 OW           5.4180     5.8980     1.9780 OW            1 RES     
    6981 HW1          5.0160     6.7930     1.7860 HW1           1 RES     
    6982 HW2          4.7030     5.2690     2.2830 HW2           1 RES     
    6983 OW          29.9710    34.9510    13.5150 OW            1 RES     
    6984 HW1         29.9170    34.2140    14.1870 HW1           1 RES     
    6985 HW2         29.8890    34.5690    12.5940 HW2           1 RES     
    6986 OW           2.2400     0.1610     9.3530 OW            1 RES     
    6987 HW1          2.3240    -0.8290     9.2450 HW1           1 RES     
    6988 HW2          2.0890     0.3800    10.3170 HW2           1 RES     
    6989 OW          23.4340    36.6000     5.9870 OW            1 RES     
    6990 HW1         22.9680    37.4770     6.0970 HW1           1 RES     
    6991 HW2         23.7630    36.2830     6.8770 HW2           1 RES     
    6992 OW          42.9540    35.8460    11.2980 OW            1 RES     
    6993 HW1         43.5110    36.5030    10.7910 HW1           1 RES     
    6994 HW2         42.1580    35.5890    10.7490 HW2           1 RES     
    6995 OW           8.2510     7.5290     8.0800 OW            1 RES     
    6996 HW1          9.1650     7.7780     7.7610 HW1           1 RES     
    6997 HW2          7.8460     8.3030     8.5680 HW2           1 RES     
    6998 OW          14.9100     6.7040     5.6670 OW            1 RES     
    6999 HW1         15.6970     7.3180     5.6060 HW1           1 RES     
    7000 HW2         14.0740     7.2430     5.7700 HW2           1 RES     
    7001 OW          -3.3460    15.8700     5.5030 OW            1 RES     
    7002 HW1         -3.6500    15.4040     6.3330 HW1           1 RES     
    7003 HW2         -3.3270    16.8580     5.6630 HW2           1 RES     
    7004 OW          17.4590     2.7290    13.6000 OW            1 RES     
    7005 HW1         16.6810     3.2350    13.9710 HW1           1 RES     
    7006 HW2         18.0330     3.3470    13.0620 HW2           1 RES     
    7007 OW          24.9980    -0.8320     6.1400 OW            1 RES     
    7008 HW1         25.2500    -0.0260     6.6750 HW1           1 RES     
    7009 HW2         24.5460    -0.5430     5.2950 HW2           1 RES     
    7010 OW          13.7060     2.9240    13.3410 OW            1 RES     
    7011 HW1         13.9700     2.0200    13.0060 HW1           1 RES     
    7012 HW2         13.7850     3.5900    12.5990 HW2           1 RES     
    7013 OW          30.3080    29.3470     4.4620 OW            1 RES     
    7014 HW1         29.9440    29.7280     5.3110 HW1           1 RES     
    7015 HW2         31.2870    29.1710     4.5670 HW2           1 RES     
    7016 OW          10.2360    17.7080    14.3680 OW            1 RES     
    7017 HW1         10.7920    18.5390    14.3570 HW1           1 RES     
    7018 HW2          9.2690    17.9530    14.4370 HW2           1 RES     
    7019 OW          16.7900    38.6240     1.9810 OW            1 RES     
    7020 HW1         16.1900    37.8260     2.0280 HW1           1 RES     
    7021 HW2         16.2430    39.4430     1.8040 HW2           1 RES     
    7022 OW          19.7450    42.3190     7.7490 OW            1 RES     
    7023 HW1         19.9880    43.2760     7.9050 HW1           1 RES     
    7024 HW2         20.5660    41.8010     7.5080 HW2           1 RES     
    7025 OW          28.9670     1.8420     8.7090 OW            1 RES     
    7026 HW1         28.3660     1.4020     9.3750 HW1           1 RES     
    7027 HW2         28.7450     1.5130     7.7900 HW2           1 RES     
    7028 OW          36.1680    10.3650    12.6530 OW            1 RES     
    7029 HW1         35.7340    11.1240    12.1690 HW1           1 RES     
    7030 HW2         37.1080    10.6130    12.8890 HW2           1 RES     
    7031 OW          10.4630    33.3830    16.8480 OW            1 RES     
    7032 HW1          9.6050    33.5920    17.3170 HW1           1 RES     
    7033 HW2         10.8020    32.4930    17.1530 HW2           1 RES     
    7034 OW          41.9720     0.5260     6.3660 OW            1 RES     
    7035 HW1         42.4940    -0.3250     6.4130 HW1           1 RES     
    7036 HW2         41.0030     0.3160     6.2300 HW2           1 RES     
    7037 OW          -5.1800    23.2980    16.0280 OW            1 RES     
    7038 HW1         -5.3800    22.3260    16.1460 HW1           1 RES     
    7039 HW2         -5.5420    23.8100    16.8070 HW2           1 RES     
    7040 OW          40.1490    33.3140    11.5920 OW            1 RES     
    7041 HW1         39.8430    34.1610    11.1590 HW1           1 RES     
    7042 HW2         41.1290    33.1940    11.4350 HW2           1 RES     
    7043 OW          13.8480    39.2590     3.8320 OW            1 RES     
    7044 HW1         14.3640    40.1040     3.9710 HW1           1 RES     
    7045 HW2         14.4810    38.5040     3.6620 HW2           1 RES     
    7046 OW          10.6810    40.4920    13.8320 OW            1 RES     
    7047 HW1         10.9140    40.4730    12.8600 HW1           1 RES     
    7048 HW2          9.6940    40.3690    13.9420 HW2           1 RES     
    7049 OW          17.4450    30.9250     8.9370 OW            1 RES     
    7050 HW1         17.6600    31.8370     8.5880 HW1           1 RES     
    7051 HW2         16.4570    30.7750     8.8910 HW2           1 RES     
    7052 OW          10.7240    37.0080     2.7110 OW            1 RES     
    7053 HW1         11.0020    36.7230     1.7940 HW1           1 RES     
    7054 HW2          9.7790    37.3350     2.6880 HW2           1 RES     
    7055 OW          27.9100    30.9680     3.8190 OW            1 RES     
    7056 HW1         27.5680    31.8080     3.3980 HW1           1 RES     
    7057 HW2         28.0230    30.2650     3.1170 HW2           1 RES     
    7058 OW          -0.8060     8.0110    13.3900 OW            1 RES     
    7059 HW1         -1.6550     8.5360    13.3420 HW1           1 RES     
    7060 HW2         -1.0010     7.0450    13.2230 HW2           1 RES     
    7061 OW          21.9930    19.0310    11.6850 OW            1 RES     
    7062 HW1         21.1410    18.7190    12.1030 HW1           1 RES     
    7063 HW2         22.3960    19.7540    12.2470 HW2           1 RES     
    7064 OW          14.9310    32.1420     7.1400 OW            1 RES     
    7065 HW1         14.5900    32.1100     8.0790 HW1           1 RES     
    7066 HW2         15.5410    31.3650     6.9800 HW2           1 RES     
    7067 OW          27.7620    30.2760    16.0040 OW            1 RES     
    7068 HW1         27.0770    30.2110    15.2790 HW1           1 RES     
    7069 HW2         27.5200    29.6540    16.7490 HW2           1 RES     
    7070 OW          20.4890    17.3680    14.1210 OW            1 RES     
    7071 HW1         20.6880    18.2380    14.5690 HW1           1 RES     
    7072 HW2         19.7650    17.4990    13.4430 HW2           1 RES     
    7073 OW          17.2950    -3.0740    14.4910 OW            1 RES     
    7074 HW1         16.5310    -3.7160    14.5500 HW1           1 RES     
    7075 HW2         17.7130    -3.1340    13.5850 HW2           1 RES     
    7076 OW           3.3710    40.1730    14.4410 OW            1 RES     
    7077 HW1          2.7110    40.9240    14.4160 HW1           1 RES     
    7078 HW2          3.9630    40.2220    13.6360 HW2           1 RES     
    7079 OW           0.4300    -0.4110    13.4310 OW            1 RES     
    7080 HW1          0.7420    -1.2590    13.8590 HW1           1 RES     
    7081 HW2         -0.5290    -0.5060    13.1640 HW2           1 RES     
    7082 OW           1.8960    -0.2970     7.1520 OW            1 RES     
    7083 HW1          0.9470     0.0040     7.0690 HW1           1 RES     
    7084 HW2          2.5060     0.4910     7.0600 HW2           1 RES     
    7085 OW          -2.3040    16.2750     8.5870 OW            1 RES     
    7086 HW1         -3.2480    15.9980     8.4120 HW1           1 RES     
    7087 HW2         -1.9260    15.7270     9.3330 HW2           1 RES     
    7088 OW          -5.1770    38.0680     7.4950 OW            1 RES     
    7089 HW1         -6.1080    37.7620     7.6930 HW1           1 RES     
    7090 HW2         -4.9420    38.8330     8.0950 HW2           1 RES     
    7091 OW           8.9010    28.5160    11.0240 OW            1 RES     
    7092 HW1          8.7500    27.8660    10.2800 HW1           1 RES     
    7093 HW2          9.8540    28.4660    11.3230 HW2           1 RES     
    7094 OW          39.8270    16.2830     9.5340 OW            1 RES     
    7095 HW1         39.3240    16.0990    10.3780 HW1           1 RES     
    7096 HW2         40.7350    16.6380     9.7560 HW2           1 RES     
    7097 OW          39.7390    29.8370     7.4880 OW            1 RES     
    7098 HW1         39.6920    29.5860     8.4540 HW1           1 RES     
    7099 HW2         39.6890    29.0110     6.9260 HW2           1 RES     
    7100 OW          32.8110    -1.0920    14.4630 OW            1 RES     
    7101 HW1         33.6800    -1.4190    14.0940 HW1           1 RES     
    7102 HW2         32.0770    -1.7130    14.1890 HW2           1 RES     
    7103 OW           7.3600    18.4390    12.6330 OW            1 RES     
    7104 HW1          7.5670    18.9730    13.4520 HW1           1 RES     
    7105 HW2          8.0510    17.7260    12.5150 HW2           1 RES     
    7106 OW          45.1650     7.0830    15.8450 OW            1 RES     
    7107 HW1         44.5420     6.4380    16.2870 HW1           1 RES     
    7108 HW2         45.3840     7.8230    16.4810 HW2           1 RES     
    7109 OW          40.9410    17.4880    17.0580 OW            1 RES     
    7110 HW1         41.8230    17.8180    17.3930 HW1           1 RES     
    7111 HW2         40.2300    18.1580    17.2730 HW2           1 RES     
    7112 OW          -5.0240    27.3430    10.8410 OW            1 RES     
    7113 HW1         -5.8120    27.8700    10.5250 HW1           1 RES     
    7114 HW2         -4.2470    27.9570    10.9850 HW2           1 RES     
    7115 OW          24.2700     9.4890    16.8140 OW            1 RES     
    7116 HW1         23.4280     8.9610    16.9180 HW1           1 RES     
    7117 HW2         25.0450     8.8650    16.7110 HW2           1 RES     
    7118 OW           5.8220    33.6940    15.1520 OW            1 RES     
    7119 HW1          6.7810    33.5100    15.3650 HW1           1 RES     
    7120 HW2          5.6480    34.6770    15.2180 HW2           1 RES     
    7121 OW          26.0730    23.8040    12.1090 OW            1 RES     
    7122 HW1         26.2430    24.4770    11.3900 HW1           1 RES     
    7123 HW2         26.9430    23.5160    12.5090 HW2           1 RES     
    7124 OW           6.2430    27.6280     8.0390 OW            1 RES     
    7125 HW1          6.5010    26.7230     7.7020 HW1           1 RES     
    7126 HW2          6.9460    28.2920     7.7830 HW2           1 RES     
    7127 OW          13.2520    34.7620    16.6630 OW            1 RES     
    7128 HW1         14.2050    34.8910    16.3900 HW1           1 RES     
    7129 HW2         13.2040    34.0830    17.3960 HW2           1 RES     
    7130 OW          -3.2610    31.7400    11.7060 OW            1 RES     
    7131 HW1         -3.3300    31.2680    10.8270 HW1           1 RES     
    7132 HW2         -3.5120    32.7010    11.5890 HW2           1 RES     
    7133 OW          44.4450    32.7410     7.3820 OW            1 RES     
    7134 HW1         45.4030    32.9440     7.1840 HW1           1 RES     
    7135 HW2         43.9830    32.4580     6.5410 HW2           1 RES     
    7136 OW          34.2790    41.8170     2.0910 OW            1 RES     
    7137 HW1         35.0390    41.2440     1.7860 HW1           1 RES     
    7138 HW2         34.6220    42.7220     2.3420 HW2           1 RES     
    7139 OW          31.3250     7.7710    15.7830 OW            1 RES     
    7140 HW1         31.5470     7.0840    16.4740 HW1           1 RES     
    7141 HW2         31.5800     7.4280    14.8780 HW2           1 RES     
    7142 OW          44.9250    23.9820    14.8620 OW            1 RES     
    7143 HW1         43.9470    23.7960    14.9530 HW1           1 RES     
    7144 HW2         45.3880    23.1670    14.5130 HW2           1 RES     
    7145 OW           8.7250    10.7190    15.6850 OW            1 RES     
    7146 HW1          9.4120    10.3880    15.0390 HW1           1 RES     
    7147 HW2          9.0490    10.5730    16.6210 HW2           1 RES     
    7148 OW          -0.8050    37.8250    15.8830 OW            1 RES     
    7149 HW1         -1.0430    36.9490    15.4670 HW1           1 RES     
    7150 HW2         -0.8420    37.7430    16.8790 HW2           1 RES     
    7151 OW          16.8290    -1.9110     2.2530 OW            1 RES     
    7152 HW1         16.0890    -1.2500     2.1330 HW1           1 RES     
    7153 HW2         17.6630    -1.4320     2.5290 HW2           1 RES     
    7154 OW          35.4870    25.9840     8.7370 OW            1 RES     
    7155 HW1         36.2010    26.4640     9.2450 HW1           1 RES     
    7156 HW2         34.7970    25.6400     9.3740 HW2           1 RES     
    7157 OW          26.6910    41.0320     7.7460 OW            1 RES     
    7158 HW1         26.7540    40.0800     7.4490 HW1           1 RES     
    7159 HW2         27.6000    41.4490     7.7270 HW2           1 RES     
    7160 OW          36.8460    27.2930    15.7420 OW            1 RES     
    7161 HW1         36.2850    27.0680    14.9460 HW1           1 RES     
    7162 HW2         36.6450    26.6530    16.4840 HW2           1 RES     
    7163 OW          -3.5000    19.4170    14.2610 OW            1 RES     
    7164 HW1         -3.6690    19.4010    15.2460 HW1           1 RES     
    7165 HW2         -3.9460    20.2170    13.8600 HW2           1 RES     
    7166 OW          -2.0840    34.0230    13.4800 OW            1 RES     
    7167 HW1         -1.2920    34.4200    13.9420 HW1           1 RES     
    7168 HW2         -1.9510    33.0380    13.3730 HW2           1 RES     
    7169 OW          24.3430     9.0490    13.2680 OW            1 RES     
    7170 HW1         24.2270     9.7880    12.6060 HW1           1 RES     
    7171 HW2         24.6380     8.2190    12.7940 HW2           1 RES     
    7172 OW          21.1030    42.5650     5.5150 OW            1 RES     
    7173 HW1         20.4080    43.2720     5.6420 HW1           1 RES     
    7174 HW2         21.9930    42.9150     5.8060 HW2           1 RES     
    7175 OW          38.0750     3.3630    11.4670 OW            1 RES     
    7176 HW1         39.0630     3.2600    11.5810 HW1           1 RES     
    7177 HW2         37.7790     4.2240    11.8820 HW2           1 RES     
    7178 OW          18.8440    30.5850    13.6410 OW            1 RES     
    7179 HW1         18.6030    31.4710    13.2460 HW1           1 RES     
    7180 HW2         18.6040    29.8570    12.9990 HW2           1 RES     
    7181 OW          25.1980    15.7580     5.5550 OW            1 RES     
    7182 HW1         25.1240    15.3110     6.4460 HW1           1 RES     
    7183 HW2         24.3780    16.3050     5.3860 HW2           1 RES     
    7184 OW          -1.2700    10.6410    16.0190 OW            1 RES     
    7185 HW1         -0.8650     9.7370    15.8880 HW1           1 RES     
    7186 HW2         -1.8270    10.6400    16.8500 HW2           1 RES     
    7187 OW          17.5800    13.9410    10.9810 OW            1 RES     
    7188 HW1         17.4530    12.9510    10.9300 HW1           1 RES     
    7189 HW2         18.5420    14.1630    10.8260 HW2           1 RES     
    7190 OW          13.3840    11.3490     9.7000 OW            1 RES     
    7191 HW1         12.9480    12.2370     9.5580 HW1           1 RES     
    7192 HW2         14.2430    11.3120     9.1900 HW2           1 RES     
    7193 OW          24.7240    -3.6760     6.4180 OW            1 RES     
    7194 HW1         24.1920    -2.9570     5.9710 HW1           1 RES     
    7195 HW2         25.2730    -3.2760     7.1520 HW2           1 RES     
    7196 OW           7.8590    30.5380    12.5190 OW            1 RES     
    7197 HW1          8.0770    30.4880    11.5450 HW1           1 RES     
    7198 HW2          6.8710    30.6400    12.6350 HW2           1 RES     
    7199 OW          34.1420    21.9560     5.6620 OW            1 RES     
    7200 HW1         34.2830    21.2720     4.9470 HW1           1 RES     
    7201 HW2         34.8840    21.8980     6.3300 HW2           1 RES     
    7202 OW          36.1450    33.1730     3.7670 OW            1 RES     
    7203 HW1         36.9200    32.5480     3.6780 HW1           1 RES     
    7204 HW2         36.4790    34.1140     3.8230 HW2           1 RES     
    7205 OW          28.5740    33.6750    10.3810 OW            1 RES     
    7206 HW1         28.4240    34.6000    10.0310 HW1           1 RES     
    7207 HW2         27.7110    33.3070    10.7290 HW2           1 RES     
    7208 OW          30.5400     7.1610     3.9720 OW            1 RES     
    7209 HW1         29.5940     6.8380     3.9630 HW1           1 RES     
    7210 HW2         30.6950     7.7200     4.7870 HW2           1 RES     
    7211 OW          28.0870    -0.9420    15.3080 OW            1 RES     
    7212 HW1         28.5760    -0.5310    14.5400 HW1           1 RES     
    7213 HW2         27.2610    -1.3960    14.9740 HW2           1 RES     
    7214 OW          14.9390     3.5020    17.3900 OW            1 RES     
    7215 HW1         15.7820     4.0390    17.3870 HW1           1 RES     
    7216 HW2         15.1640     2.5270    17.3960 HW2           1 RES     
    7217 OW           8.7260    27.8610     2.9090 OW            1 RES     
    7218 HW1          7.8610    27.5950     3.3320 HW1           1 RES     
    7219 HW2          9.4850    27.4560     3.4190 HW2           1 RES     
    7220 OW          -3.6750    31.6880     4.6750 OW            1 RES     
    7221 HW1         -3.1110    30.8640     4.6330 HW1           1 RES     
    7222 HW2         -3.2480    32.4120     4.1330 HW2           1 RES     
    7223 OW          39.3250     7.8880     9.9650 OW            1 RES     
    7224 HW1         38.4610     7.4020    10.0900 HW1           1 RES     
    7225 HW2         39.1480     8.7820     9.5520 HW2           1 RES     
    7226 OW          33.0960    -0.8010    11.3880 OW            1 RES     
    7227 HW1         33.1750     0.1950    11.3690 HW1           1 RES     
    7228 HW2         34.0090    -1.2090    11.3750 HW2           1 RES     
    7229 OW          44.6440    25.2780     9.2860 OW            1 RES     
    7230 HW1         44.8700    25.3950     8.3200 HW1           1 RES     
    7231 HW2         44.6590    26.1680     9.7430 HW2           1 RES     
    7232 OW          -6.1070     6.2290     8.4830 OW            1 RES     
    7233 HW1         -5.3870     5.7340     8.9690 HW1           1 RES     
    7234 HW2         -5.9990     6.0940     7.4980 HW2           1 RES     
    7235 OW          37.6720     5.0350     7.2320 OW            1 RES     
    7236 HW1         38.6580     4.9830     7.0780 HW1           1 RES     
    7237 HW2         37.4950     5.3640     8.1600 HW2           1 RES     
    7238 OW           3.8910    17.4780    11.3410 OW            1 RES     
    7239 HW1          4.6410    16.8390    11.5080 HW1           1 RES     
    7240 HW2          3.0170    17.0170    11.5000 HW2           1 RES     
    7241 OW           0.1080    -1.2230    17.3970 OW            1 RES     
    7242 HW1         -0.1390    -2.1910    17.3740 HW1           1 RES     
    7243 HW2          1.1000    -1.1290    17.3160 HW2           1 RES     
    7244 OW          37.2340    17.3590     8.6090 OW            1 RES     
    7245 HW1         37.2270    16.4110     8.9270 HW1           1 RES     
    7246 HW2         38.1770    17.6490     8.4460 HW2           1 RES     
    7247 OW          23.8980    39.9720     6.5150 OW            1 RES     
    7248 HW1         24.6690    40.4940     6.8780 HW1           1 RES     
    7249 HW2         23.5160    39.3950     7.2370 HW2           1 RES     
    7250 OW          23.9750    13.7960    17.1660 OW            1 RES     
    7251 HW1         23.8010    12.8390    17.3970 HW1           1 RES     
    7252 HW2         23.1390    14.3290    17.3010 HW2           1 RES     
    7253 OW          12.0040    33.2130     8.9040 OW            1 RES     
    7254 HW1         11.0200    33.3900     8.9080 HW1           1 RES     
    7255 HW2         12.4990    34.0820     8.9080 HW2           1 RES     
    7256 OW          41.5920    11.3080     9.7120 OW            1 RES     
    7257 HW1         40.6760    11.5930     9.9930 HW1           1 RES     
    7258 HW2         41.7450    10.3580     9.9860 HW2           1 RES     
    7259 OW          25.5810    28.4770    14.4640 OW            1 RES     
    7260 HW1         24.8830    27.7790    14.6190 HW1           1 RES     
    7261 HW2         25.1520    29.3800    14.4410 HW2           1 RES     
    7262 OW          31.7390     1.5020    15.3820 OW            1 RES     
    7263 HW1         31.2480     0.7590    15.8370 HW1           1 RES     
    7264 HW2         32.5330     1.1320    14.9000 HW2           1 RES     
    7265 OW          44.6400    20.9340    13.2620 OW            1 RES     
    7266 HW1         43.8180    21.3960    13.5940 HW1           1 RES     
    7267 HW2         44.4790    19.9470    13.2320 HW2           1 RES     
    7268 OW          28.3970    -2.9150    10.0970 OW            1 RES     
    7269 HW1         27.6660    -3.4850    10.4720 HW1           1 RES     
    7270 HW2         29.0050    -3.4770     9.5360 HW2           1 RES     
    7271 OW          20.5420    -2.6300    13.4220 OW            1 RES     
    7272 HW1         19.8900    -3.3870    13.3840 HW1           1 RES     
    7273 HW2         21.4650    -2.9910    13.5560 HW2           1 RES     
    7274 OW          42.1300    14.7660     3.9130 OW            1 RES     
    7275 HW1         42.7890    14.0170     3.9530 HW1           1 RES     
    7276 HW2         42.6180    15.6370     3.8410 HW2           1 RES     
    7277 OW          32.6390     2.0020     8.4930 OW            1 RES     
    7278 HW1         32.0780     2.4770     7.8160 HW1           1 RES     
    7279 HW2         33.0250     2.6670     9.1330 HW2           1 RES     
    7280 OW          28.2860    34.8840    15.5030 OW            1 RES     
    7281 HW1         27.7070    34.2370    15.0090 HW1           1 RES     
    7282 HW2         27.9050    35.0440    16.4140 HW2           1 RES     
    7283 OW          31.5170    11.1670     5.2600 OW            1 RES     
    7284 HW1         30.9650    10.8750     6.0400 HW1           1 RES     
    7285 HW2         31.1050    11.9800     4.8460 HW2           1 RES     
    7286 OW          42.3230     8.3500     4.0760 OW            1 RES     
    7287 HW1         42.2980     8.4900     5.0660 HW1           1 RES     
    7288 HW2         42.7380     9.1460     3.6360 HW2           1 RES     
    7289 OW           9.4610    -2.0810    15.3010 OW            1 RES     
    7290 HW1          8.6910    -2.4290    14.7680 HW1           1 RES     
    7291 HW2          9.3160    -2.2830    16.2700 HW2           1 RES     
    7292 OW          44.6440     3.5530     3.1680 OW            1 RES     
    7293 HW1         44.1260     2.7110     3.0220 HW1           1 RES     
    7294 HW2         44.1090     4.3340     2.8470 HW2           1 RES     
    7295 OW          43.5070    27.5200    12.5000 OW            1 RES     
    7296 HW1         44.0670    27.3130    13.3010 HW1           1 RES     
    7297 HW2         42.8260    28.2120    12.7380 HW2           1 RES     
    7298 OW          14.8020     7.6930    15.4160 OW            1 RES     
    7299 HW1         14.5660     7.7270    16.3860 HW1           1 RES     
    7300 HW2         14.8370     8.6220    15.0470 HW2           1 RES     
    7301 OW          33.9900    13.5330     9.5340 OW            1 RES     
    7302 HW1         34.0440    13.3480     8.5540 HW1           1 RES     
    7303 HW2         33.5430    12.7660     9.9950 HW2           1 RES     
    7304 OW          17.4070    16.0670     5.4830 OW            1 RES     
    7305 HW1         17.7040    15.4630     4.7450 HW1           1 RES     
    7306 HW2         17.2960    15.5360     6.3240 HW2           1 RES     
    7307 OW          28.0800    34.9950     4.2020 OW            1 RES     
    7308 HW1         29.0580    34.7910     4.2310 HW1           1 RES     
    7309 HW2         27.5630    34.1420     4.1390 HW2           1 RES     
    7310 OW          16.3400     4.6400     7.4030 OW            1 RES     
    7311 HW1         16.5910     3.6890     7.2270 HW1           1 RES     
    7312 HW2         16.2910     5.1380     6.5360 HW2           1 RES     
    7313 OW          -4.8390    36.5950    10.6570 OW            1 RES     
    7314 HW1         -4.8380    36.6420     9.6590 HW1           1 RES     
    7315 HW2         -4.0260    37.0560    11.0150 HW2           1 RES     
    7316 OW          29.4750    40.6480     9.7040 OW            1 RES     
    7317 HW1         30.0540    41.0020     8.9700 HW1           1 RES     
    7318 HW2         28.7600    41.3150     9.9160 HW2           1 RES     
    7319 OW          -3.9920    12.0350    12.5750 OW            1 RES     
    7320 HW1         -3.2160    11.4050    12.5860 HW1           1 RES     
    7321 HW2         -4.3200    12.1460    11.6370 HW2           1 RES     
    7322 OW          17.7770     9.9150     9.9590 OW            1 RES     
    7323 HW1         18.0960     9.8870    10.9060 HW1           1 RES     
    7324 HW2         17.8710     9.0080     9.5480 HW2           1 RES     
    7325 OW          38.2210     3.2200     8.3470 OW            1 RES     
    7326 HW1         38.6390     2.5590     7.7240 HW1           1 RES     
    7327 HW2         37.2380     3.0450     8.4080 HW2           1 RES     
    7328 OW           8.1140    21.0290     6.6990 OW            1 RES     
    7329 HW1          7.3810    21.3940     6.1260 HW1           1 RES     
    7330 HW2          7.8640    21.1230     7.6630 HW2           1 RES     
    7331 OW          30.3720    23.6490    10.8700 OW            1 RES     
    7332 HW1         31.1810    24.1230    11.2160 HW1           1 RES     
    7333 HW2         30.3940    22.6930    11.1620 HW2           1 RES     
    7334 OW          26.6980    10.6470    17.0400 OW            1 RES     
    7335 HW1         27.1240     9.8140    17.3920 HW1           1 RES     
    7336 HW2         27.1460    10.9180    16.1890 HW2           1 RES     
    7337 OW          19.6200    40.9050     5.3080 OW            1 RES     
    7338 HW1         18.9610    41.3670     4.7160 HW1           1 RES     
    7339 HW2         19.5400    39.9150     5.1890 HW2           1 RES     
    7340 OW          -1.8930    41.9820     8.5500 OW            1 RES     
    7341 HW1         -2.1260    42.5950     9.3050 HW1           1 RES     
    7342 HW2         -2.3640    41.1090     8.6710 HW2           1 RES     
    7343 OW           3.7410    28.9110    12.7280 OW            1 RES     
    7344 HW1          3.7380    28.8730    11.7300 HW1           1 RES     
    7345 HW2          3.1970    28.1550    13.0930 HW2           1 RES     
    7346 OW           8.2190     6.3850     3.7140 OW            1 RES     
    7347 HW1          9.0910     6.8210     3.4920 HW1           1 RES     
    7348 HW2          7.5150     7.0860     3.8270 HW2           1 RES     
    7349 OW          37.3390    -2.0200     5.9240 OW            1 RES     
    7350 HW1         36.8520    -2.0400     5.0520 HW1           1 RES     
    7351 HW2         38.3120    -2.1930     5.7680 HW2           1 RES     
    7352 OW          36.4010     8.1360    12.5710 OW            1 RES     
    7353 HW1         35.6330     8.3440    11.9670 HW1           1 RES     
    7354 HW2         37.2440     8.5040    12.1790 HW2           1 RES     
    7355 OW          42.0800    36.4100     7.1520 OW            1 RES     
    7356 HW1         42.3610    35.4700     6.9580 HW1           1 RES     
    7357 HW2         41.5150    36.4250     7.9770 HW2           1 RES     
    7358 OW          17.7560    30.1760     5.5790 OW            1 RES     
    7359 HW1         17.7180    29.2000     5.3720 HW1           1 RES     
    7360 HW2         18.6970    30.4350     5.7980 HW2           1 RES     
    7361 OW           3.3410    36.2340    12.2660 OW            1 RES     
    7362 HW1          3.5160    35.2510    12.3020 HW1           1 RES     
    7363 HW2          2.9740    36.5410    13.1440 HW2           1 RES     
    7364 OW          37.5070    14.5760     7.2350 OW            1 RES     
    7365 HW1         37.8210    15.3060     6.6280 HW1           1 RES     
    7366 HW2         38.0880    14.5440     8.0480 HW2           1 RES     
    7367 OW           1.1000    33.2090     5.4030 OW            1 RES     
    7368 HW1          0.1490    33.4270     5.6190 HW1           1 RES     
    7369 HW2          1.5460    34.0120     5.0090 HW2           1 RES     
    7370 OW          44.7550    16.7660     3.1470 OW            1 RES     
    7371 HW1         44.1860    16.8680     2.3320 HW1           1 RES     
    7372 HW2         45.3960    16.0090     3.0150 HW2           1 RES     
    7373 OW          25.9050    37.6490     6.0530 OW            1 RES     
    7374 HW1         25.7720    36.6580     6.0640 HW1           1 RES     
    7375 HW2         25.0620    38.1010     6.3460 HW2           1 RES     
    7376 OW          14.5430    21.5880    14.9600 OW            1 RES     
    7377 HW1         15.3590    22.1210    15.1810 HW1           1 RES     
    7378 HW2         13.7690    21.9240    15.4980 HW2           1 RES     
    7379 OW          32.9810    35.3180     5.2680 OW            1 RES     
    7380 HW1         32.5740    34.6290     5.8680 HW1           1 RES     
    7381 HW2         33.9090    35.0390     5.0210 HW2           1 RES     
    7382 OW           1.4300    13.2790    14.0830 OW            1 RES     
    7383 HW1          2.1330    12.8560    14.6540 HW1           1 RES     
    7384 HW2          1.3850    12.8050    13.2030 HW2           1 RES     
    7385 OW          33.0380    34.2060    11.9430 OW            1 RES     
    7386 HW1         33.4080    34.9470    11.3820 HW1           1 RES     
    7387 HW2         33.5460    33.3640    11.7610 HW2           1 RES     
    7388 OW          34.7260    34.7610     7.4870 OW            1 RES     
    7389 HW1         33.8110    35.1440     7.6130 HW1           1 RES     
    7390 HW2         35.3190    35.4440     7.0610 HW2           1 RES     
    7391 OW          45.4040    29.4490    12.9650 OW            1 RES     
    7392 HW1         45.2710    28.8030    12.2140 HW1           1 RES     
    7393 HW2         44.6060    29.4290    13.5680 HW2           1 RES     
    7394 OW          32.7310    -3.2120     9.9890 OW            1 RES     
    7395 HW1         33.5270    -2.8070     9.5400 HW1           1 RES     
    7396 HW2         32.7130    -2.9350    10.9500 HW2           1 RES     
    7397 OW          35.4880    30.2330     5.2880 OW            1 RES     
    7398 HW1         36.0760    29.5170     5.6610 HW1           1 RES     
    7399 HW2         35.1980    30.8450     6.0240 HW2           1 RES     
    7400 OW          29.9380     9.2650    11.8450 OW            1 RES     
    7401 HW1         30.8160     9.4980    12.2620 HW1           1 RES     
    7402 HW2         29.4500    10.1050    11.6050 HW2           1 RES     
    7403 OW          14.1730     2.3840    10.7770 OW            1 RES     
    7404 HW1         14.6220     3.2500    10.5610 HW1           1 RES     
    7405 HW2         14.8640     1.6730    10.9100 HW2           1 RES     
    7406 OW          39.1140    23.0630     5.5170 OW            1 RES     
    7407 HW1         38.5850    22.3850     5.0060 HW1           1 RES     
    7408 HW2         38.4910    23.7060     5.9620 HW2           1 RES     
    7409 OW          -5.1170    26.9780    17.2190 OW            1 RES     
    7410 HW1         -6.1060    27.0570    17.3340 HW1           1 RES     
    7411 HW2         -4.9150    26.5730    16.3270 HW2           1 RES     
    7412 OW          -0.5660    21.1690     9.9100 OW            1 RES     
    7413 HW1         -1.0250    20.5590     9.2660 HW1           1 RES     
    7414 HW2         -0.0510    20.6270    10.5750 HW2           1 RES     
    7415 OW          -2.5890     3.5070    11.7240 OW            1 RES     
    7416 HW1         -1.6310     3.3580    11.9670 HW1           1 RES     
    7417 HW2         -2.8990     2.7710    11.1220 HW2           1 RES     
    7418 OW          33.7840     5.0320    12.3430 OW            1 RES     
    7419 HW1         33.9560     5.7320    11.6510 HW1           1 RES     
    7420 HW2         34.5020     4.3370    12.3000 HW2           1 RES     
    7421 OW          44.5650    16.7300     7.3480 OW            1 RES     
    7422 HW1         44.9680    15.9210     7.7750 HW1           1 RES     
    7423 HW2         45.2300    17.1490     6.7300 HW2           1 RES     
    7424 OW          26.9860    17.6420    17.3970 OW            1 RES     
    7425 HW1         26.6320    16.8890    16.8430 HW1           1 RES     
    7426 HW2         27.3650    18.3480    16.7990 HW2           1 RES     
    7427 OW          38.2500    12.5480     5.3460 OW            1 RES     
    7428 HW1         37.6490    12.4470     6.1380 HW1           1 RES     
    7429 HW2         38.3940    13.5200     5.1580 HW2           1 RES     
    7430 OW           5.1160    23.3590     4.7090 OW            1 RES     
    7431 HW1          4.7780    22.4210     4.6380 HW1           1 RES     
    7432 HW2          4.3440    23.9940     4.6830 HW2           1 RES     
    7433 OW           5.2720    18.2950    13.8680 OW            1 RES     
    7434 HW1          4.6730    17.5020    13.7670 HW1           1 RES     
    7435 HW2          4.7510    19.1310    13.6910 HW2           1 RES     
    7436 OW          27.7790    38.8360     3.4250 OW            1 RES     
    7437 HW1         27.2510    38.3690     2.7170 HW1           1 RES     
    7438 HW2         28.7400    38.8800     3.1500 HW2           1 RES     
    7439 OW          43.9010    36.7870     5.0770 OW            1 RES     
    7440 HW1         44.7390    37.0260     5.5670 HW1           1 RES     
    7441 HW2         43.2750    37.5670     5.0840 HW2           1 RES     
    7442 OW          10.1840    30.7190    12.9840 OW            1 RES     
    7443 HW1         10.9310    31.1200    12.4550 HW1           1 RES     
    7444 HW2          9.6570    31.4470    13.4240 HW2           1 RES     
    7445 OW          40.2380     7.5410    12.1030 OW            1 RES     
    7446 HW1         40.6030     8.4710    12.0930 HW1           1 RES     
    7447 HW2         39.2390     7.5750    12.1410 HW2           1 RES     
    7448 OW           7.8660    35.1940     2.4740 OW            1 RES     
    7449 HW1          7.0500    35.7390     2.6610 HW1           1 RES     
    7450 HW2          7.5960    34.2640     2.2230 HW2           1 RES     
    7451 OW          -1.6100    22.9780    16.3490 OW            1 RES     
    7452 HW1         -1.2570    22.7470    17.2550 HW1           1 RES     
    7453 HW2         -0.9090    22.7920    15.6600 HW2           1 RES     
    7454 OW           4.2920    19.8940    16.3770 OW            1 RES     
    7455 HW1          3.8770    20.0640    15.4840 HW1           1 RES     
    7456 HW2          4.0720    18.9640    16.6750 HW2           1 RES     
    7457 OW          23.8110    33.0300    14.3830 OW            1 RES     
    7458 HW1         24.7970    33.0760    14.2250 HW1           1 RES     
    7459 HW2         23.3820    32.4890    13.6600 HW2           1 RES     
    7460 OW          -6.0820    22.9680     9.1580 OW            1 RES     
    7461 HW1         -6.1080    21.9740     9.2620 HW1           1 RES     
    7462 HW2         -5.5280    23.2050     8.3590 HW2           1 RES     
    7463 OW          40.9820    41.4700    12.5660 OW            1 RES     
    7464 HW1         41.1200    40.6040    12.0880 HW1           1 RES     
    7465 HW2         41.8680    41.8980    12.7440 HW2           1 RES     
    7466 OW           8.9810    33.4540     4.2540 OW            1 RES     
    7467 HW1          9.8680    33.0030     4.3480 HW1           1 RES     
    7468 HW2          8.6840    33.7950     5.1460 HW2           1 RES     
    7469 OW           3.0330    30.1410    14.4100 OW            1 RES     
    7470 HW1          2.2280    29.6420    14.7290 HW1           1 RES     
    7471 HW2          2.7530    31.0300    14.0480 HW2           1 RES     
    7472 OW          27.9190    21.5330     5.6190 OW            1 RES     
    7473 HW1         28.6190    22.2450     5.5670 HW1           1 RES     
    7474 HW2         28.3250    20.6480     5.3940 HW2           1 RES     
    7475 OW           2.3360    32.0240    16.0590 OW            1 RES     
    7476 HW1          3.2110    31.5800    16.2480 HW1           1 RES     
    7477 HW2          1.6120    31.3350    16.0270 HW2           1 RES     
    7478 OW          -5.8000    17.7410    15.1620 OW            1 RES     
    7479 HW1         -4.9390    17.7050    14.6560 HW1           1 RES     
    7480 HW2         -5.7120    17.2120    16.0070 HW2           1 RES     
    7481 OW          43.4560     1.7080     8.9220 OW            1 RES     
    7482 HW1         44.3970     1.4880     8.6690 HW1           1 RES     
    7483 HW2         42.8440     1.4750     8.1660 HW2           1 RES     
    7484 OW          -0.5480    25.8260    17.3910 OW            1 RES     
    7485 HW1          0.0140    26.6530    17.3920 HW1           1 RES     
    7486 HW2          0.0440    25.0200    17.3900 HW2           1 RES     
    7487 OW          43.6910    22.5100     8.0370 OW            1 RES     
    7488 HW1         44.6620    22.5310     8.2710 HW1           1 RES     
    7489 HW2         43.5600    22.8840     7.1190 HW2           1 RES     
    7490 OW          11.1050    16.5930     2.6530 OW            1 RES     
    7491 HW1         11.0380    15.8940     3.3640 HW1           1 RES     
    7492 HW2         10.6460    16.2710     1.8240 HW2           1 RES     
    7493 OW           5.7060    19.6460    11.2150 OW            1 RES     
    7494 HW1          5.7330    20.3840    11.8880 HW1           1 RES     
    7495 HW2          4.7680    19.5250    10.8890 HW2           1 RES     
    7496 OW          37.2910    37.9610     4.5050 OW            1 RES     
    7497 HW1         38.2750    37.8930     4.3410 HW1           1 RES     
    7498 HW2         36.9250    37.0560     4.7230 HW2           1 RES     
    7499 OW          18.1330    15.8240    12.8310 OW            1 RES     
    7500 HW1         18.2090    14.8290    12.8960 HW1           1 RES     
    7501 HW2         18.1520    16.0980    11.8700 HW2           1 RES     
    7502 OW          42.0560    42.7030     7.9080 OW            1 RES     
    7503 HW1         41.9780    41.7400     8.1630 HW1           1 RES     
    7504 HW2         41.9040    43.2760     8.7140 HW2           1 RES     
    7505 OW           0.8890    18.6460    10.7480 OW            1 RES     
    7506 HW1          1.4210    18.9520    11.5360 HW1           1 RES     
    7507 HW2          1.1200    17.6950    10.5380 HW2           1 RES     
    7508 OW          12.5580    14.3480    10.7550 OW            1 RES     
    7509 HW1         13.3450    14.4240    10.1450 HW1           1 RES     
    7510 HW2         11.7160    14.3490    10.2160 HW2           1 RES     
    7511 OW          19.3420    14.0700    14.6790 OW            1 RES     
    7512 HW1         19.4440    13.7890    15.6320 HW1           1 RES     
    7513 HW2         20.1670    13.8270    14.1680 HW2           1 RES     
    7514 OW          20.2310    41.1900    16.7030 OW            1 RES     
    7515 HW1         19.2500    41.0780    16.5490 HW1           1 RES     
    7516 HW2         20.6330    41.6980    15.9410 HW2           1 RES     
    7517 OW           3.5840    34.3230     5.7890 OW            1 RES     
    7518 HW1          3.8100    34.8750     4.9870 HW1           1 RES     
    7519 HW2          3.7850    33.3620     5.6010 HW2           1 RES     
    7520 OW           3.8930    13.3230     8.6350 OW            1 RES     
    7521 HW1          3.2360    12.6850     8.2340 HW1           1 RES     
    7522 HW2          3.6350    14.2600     8.3990 HW2           1 RES     
    7523 OW          22.5870    40.8690    16.5670 OW            1 RES     
    7524 HW1         22.7930    41.8300    16.3910 HW1           1 RES     
    7525 HW2         23.2280    40.2920    16.0610 HW2           1 RES     
    7526 OW          10.9200     8.8700    12.4920 OW            1 RES     
    7527 HW1         11.1190     9.7620    12.8970 HW1           1 RES     
    7528 HW2         11.4370     8.7660    11.6430 HW2           1 RES     
    7529 OW          26.2570    22.7990     9.8860 OW            1 RES     
    7530 HW1         26.9960    22.5520    10.5120 HW1           1 RES     
    7531 HW2         26.3090    22.2290     9.0660 HW2           1 RES     
    7532 OW          43.3970     7.3550    10.7550 OW            1 RES     
    7533 HW1         42.4650     7.0030    10.8380 HW1           1 RES     
    7534 HW2         43.3680     8.3090    10.4580 HW2           1 RES     
    7535 OW          14.1130    30.9330    14.9600 OW            1 RES     
    7536 HW1         14.9030    31.3990    15.3570 HW1           1 RES     
    7537 HW2         13.7390    31.4860    14.2160 HW2           1 RES     
    7538 OW          16.3950    30.9110    12.9890 OW            1 RES     
    7539 HW1         16.3870    31.9070    12.9170 HW1           1 RES     
    7540 HW2         15.4760    30.5840    13.2100 HW2           1 RES     
    7541 OW          26.5800    -2.6080     4.2190 OW            1 RES     
    7542 HW1         25.8940    -3.3350     4.2120 HW1           1 RES     
    7543 HW2         26.1230    -1.7180     4.2040 HW2           1 RES     
    7544 OW           5.1410    30.7920    14.3910 OW            1 RES     
    7545 HW1          5.7350    31.5590    14.6300 HW1           1 RES     
    7546 HW2          5.6800    29.9500    14.3520 HW2           1 RES     
    7547 OW          27.7790    28.9480     8.8550 OW            1 RES     
    7548 HW1         28.6960    28.7340     9.1890 HW1           1 RES     
    7549 HW2         27.3860    28.1400     8.4160 HW2           1 RES     
    7550 OW          23.2330    41.3520    11.1790 OW            1 RES     
    7551 HW1         22.6490    42.0490    10.7650 HW1           1 RES     
    7552 HW2         22.8720    40.4440    10.9650 HW2           1 RES     
    7553 OW          -6.0990    20.3320     2.5700 OW            1 RES     
    7554 HW1         -5.5740    20.2940     3.4200 HW1           1 RES     
    7555 HW2         -5.4730    20.3290     1.7900 HW2           1 RES     
    7556 OW          22.3090    10.5180    14.9950 OW            1 RES     
    7557 HW1         22.0820    10.4350    15.9640 HW1           1 RES     
    7558 HW2         21.4660    10.5650    14.4580 HW2           1 RES     
    7559 OW          16.0680    29.3010    11.5240 OW            1 RES     
    7560 HW1         15.3960    28.6020    11.7680 HW1           1 RES     
    7561 HW2         15.6070    30.0630    11.0690 HW2           1 RES     
    7562 OW          37.0660    29.4410    16.1610 OW            1 RES     
    7563 HW1         36.5880    30.1540    15.6490 HW1           1 RES     
    7564 HW2         37.7790    29.8560    16.7270 HW2           1 RES     
    7565 OW          -5.7370    -1.9240     3.0520 OW            1 RES     
    7566 HW1         -4.8140    -2.3060     3.0150 HW1           1 RES     
    7567 HW2         -5.8880    -1.5000     3.9450 HW2           1 RES     
    7568 OW          25.3830    29.2290    10.9170 OW            1 RES     
    7569 HW1         25.6980    28.6880    11.6970 HW1           1 RES     
    7570 HW2         25.9900    29.0760    10.1380 HW2           1 RES     
    7571 OW           7.1470    -0.1940     5.5750 OW            1 RES     
    7572 HW1          8.0150    -0.0440     6.0480 HW1           1 RES     
    7573 HW2          6.8420    -1.1350     5.7270 HW2           1 RES     
    7574 OW          40.4770    26.3970     4.6560 OW            1 RES     
    7575 HW1         39.6100    26.2480     5.1300 HW1           1 RES     
    7576 HW2         41.1910    25.8420     5.0840 HW2           1 RES     
    7577 OW          15.0640     8.1200    12.2050 OW            1 RES     
    7578 HW1         14.4320     7.3460    12.2060 HW1           1 RES     
    7579 HW2         16.0060     7.7830    12.2040 HW2           1 RES     
    7580 OW          37.2510    16.3950    12.0560 OW            1 RES     
    7581 HW1         36.4810    16.8990    12.4450 HW1           1 RES     
    7582 HW2         37.0500    16.1570    11.1060 HW2           1 RES     
    7583 OW          16.6420    38.0780    16.1810 OW            1 RES     
    7584 HW1         16.6040    37.4240    16.9350 HW1           1 RES     
    7585 HW2         16.5320    39.0060    16.5380 HW2           1 RES     
    7586 OW          15.9680     1.6930     8.2260 OW            1 RES     
    7587 HW1         16.8220     2.0080     8.6380 HW1           1 RES     
    7588 HW2         16.1480     0.8910     7.6570 HW2           1 RES     
    7589 OW          40.2890    18.9380    10.9410 OW            1 RES     
    7590 HW1         41.1750    18.4810    10.8750 HW1           1 RES     
    7591 HW2         40.4190    19.9280    10.8850 HW2           1 RES     
    7592 OW          15.4500    37.9080    10.2650 OW            1 RES     
    7593 HW1         14.9960    38.4190    10.9940 HW1           1 RES     
    7594 HW2         14.8300    37.8180     9.4850 HW2           1 RES     
    7595 OW           4.6360    15.2340    16.2640 OW            1 RES     
    7596 HW1          5.2420    14.4630    16.4580 HW1           1 RES     
    7597 HW2          4.0550    15.0120    15.4800 HW2           1 RES     
    7598 OW          12.0690    37.7760    10.7020 OW            1 RES     
    7599 HW1         12.6710    37.7670     9.9050 HW1           1 RES     
    7600 HW2         12.2060    36.9400    11.2350 HW2           1 RES     
    7601 OW           0.8720    31.7390     8.3400 OW            1 RES     
    7602 HW1          1.4610    32.3820     8.8280 HW1           1 RES     
    7603 HW2          1.4300    31.0070     7.9480 HW2           1 RES     
    7604 OW          32.5180     1.7720     4.1720 OW            1 RES     
    7605 HW1         33.2780     1.5230     4.7700 HW1           1 RES     
    7606 HW2         32.5950     1.2730     3.3090 HW2           1 RES     
    7607 OW          17.1380    14.7840     2.1840 OW            1 RES     
    7608 HW1         16.3330    14.1970     2.1150 HW1           1 RES     
    7609 HW2         17.9430    14.2870     1.8610 HW2           1 RES     
    7610 OW          10.4300    22.2870     3.3160 OW            1 RES     
    7611 HW1         10.5940    21.6240     4.0450 HW1           1 RES     
    7612 HW2          9.5190    22.6850     3.4250 HW2           1 RES     
    7613 OW          39.7840    22.1540    10.4000 OW            1 RES     
    7614 HW1         39.5700    22.2030     9.4250 HW1           1 RES     
    7615 HW2         40.2140    23.0090    10.6920 HW2           1 RES     
    7616 OW          26.5810    40.6520     3.7490 OW            1 RES     
    7617 HW1         26.5950    40.3700     4.7080 HW1           1 RES     
    7618 HW2         25.7710    40.2730     3.3010 HW2           1 RES     
    7619 OW          -0.0790     0.5810    10.6490 OW            1 RES     
    7620 HW1         -0.9770     0.5840    11.0860 HW1           1 RES     
    7621 HW2         -0.0780     1.2240     9.8830 HW2           1 RES     
    7622 OW          -1.3280    19.8990     6.5450 OW            1 RES     
    7623 HW1         -0.9230    19.0960     6.1090 HW1           1 RES     
    7624 HW2         -2.2790    19.7050     6.7850 HW2           1 RES     
    7625 OW          13.6270    10.5390    12.2260 OW            1 RES     
    7626 HW1         12.8010    11.0270    11.9460 HW1           1 RES     
    7627 HW2         13.4110     9.5720    12.3670 HW2           1 RES     
    7628 OW           8.0610    38.0440    11.1150 OW            1 RES     
    7629 HW1          8.8380    37.4180    11.0600 HW1           1 RES     
    7630 HW2          8.1820    38.7850    10.4540 HW2           1 RES     
    7631 OW          -4.6960    22.0580    12.2500 OW            1 RES     
    7632 HW1         -5.0390    21.2210    11.8260 HW1           1 RES     
    7633 HW2         -5.4680    22.6180    12.5550 HW2           1 RES     
    7634 OW          17.1960    37.3900    12.0610 OW            1 RES     
    7635 HW1         17.2380    36.7980    11.2570 HW1           1 RES     
    7636 HW2         17.2560    38.3470    11.7760 HW2           1 RES     
    7637 OW          39.1620    36.0500    10.0330 OW            1 RES     
    7638 HW1         38.1720    36.0250    10.1710 HW1           1 RES     
    7639 HW2         39.3670    35.9090     9.0640 HW2           1 RES     
    7640 OW          18.6090     1.3600    10.3880 OW            1 RES     
    7641 HW1         18.7030     1.1560     9.4140 HW1           1 RES     
    7642 HW2         19.2390     2.0960    10.6370 HW2           1 RES     
    7643 OW          41.1140    25.9930     7.9970 OW            1 RES     
    7644 HW1         41.4820    25.2690     8.5800 HW1           1 RES     
    7645 HW2         40.2790    26.3600     8.4080 HW2           1 RES     
    7646 OW          13.5460    14.3910    16.9320 OW            1 RES     
    7647 HW1         14.2220    14.9260    16.4270 HW1           1 RES     
    7648 HW2         13.5400    13.4520    16.5890 HW2           1 RES     
    7649 OW           6.5690    35.5350     4.8420 OW            1 RES     
    7650 HW1          6.0810    36.3540     4.5430 HW1           1 RES     
    7651 HW2          6.1380    34.7250     4.4430 HW2           1 RES     
    7652 OW          29.4740    16.2570    17.2340 OW            1 RES     
    7653 HW1         28.7290    15.6890    16.8860 HW1           1 RES     
    7654 HW2         29.1390    17.1860    17.3940 HW2           1 RES     
    7655 OW          34.5030     6.1550    16.4380 OW            1 RES     
    7656 HW1         35.5020     6.1680    16.4120 HW1           1 RES     
    7657 HW2         34.1830     5.2110    16.5270 HW2           1 RES     
    7658 OW          44.7430    12.9630    16.6180 OW            1 RES     
    7659 HW1         45.1230    12.6450    15.7510 HW1           1 RES     
    7660 HW2         44.5450    12.1770    17.2040 HW2           1 RES     
    7661 OW          31.5560    20.6190     4.7060 OW            1 RES     
    7662 HW1         30.7000    20.3880     5.1670 HW1           1 RES     
    7663 HW2         32.1030    21.2130     5.2960 HW2           1 RES     
    7664 OW          42.9790    22.0140     2.9550 OW            1 RES     
    7665 HW1         43.7140    21.3510     3.0960 HW1           1 RES     
    7666 HW2         42.8240    22.1360     1.9750 HW2           1 RES     
    7667 OW          32.8720    20.0840     8.9670 OW            1 RES     
    7668 HW1         33.6910    20.6450     9.0840 HW1           1 RES     
    7669 HW2         32.0790    20.6760     8.8210 HW2           1 RES     
    7670 OW           4.9510    35.2330     7.6000 OW            1 RES     
    7671 HW1          4.5590    34.3360     7.8010 HW1           1 RES     
    7672 HW2          5.6500    35.1410     6.8910 HW2           1 RES     
    7673 OW          -5.1530    30.8620     7.3300 OW            1 RES     
    7674 HW1         -5.5220    31.4120     8.0780 HW1           1 RES     
    7675 HW2         -5.3610    29.8970     7.4910 HW2           1 RES     
    7676 OW          21.7150    42.2200    14.0660 OW            1 RES     
    7677 HW1         21.8260    43.2000    13.9040 HW1           1 RES     
    7678 HW2         22.6110    41.7750    14.0480 HW2           1 RES     
    7679 OW          12.3360    33.1240    13.7810 OW            1 RES     
    7680 HW1         12.1700    33.0370    12.7990 HW1           1 RES     
    7681 HW2         11.7100    32.5240    14.2800 HW2           1 RES     
    7682 OW          11.6780    -1.0800    17.3680 OW            1 RES     
    7683 HW1         12.6640    -1.2380    17.3970 HW1           1 RES     
    7684 HW2         11.4970    -0.0960    17.3740 HW2           1 RES     
    7685 OW          25.6370    33.8120     3.0720 OW            1 RES     
    7686 HW1         24.8570    34.3970     2.8570 HW1           1 RES     
    7687 HW2         26.3180    33.8820     2.3430 HW2           1 RES     
    7688 OW          28.7410     6.8400     6.3330 OW            1 RES     
    7689 HW1         28.2140     6.1870     5.7910 HW1           1 RES     
    7690 HW2         28.7730     7.7200     5.8580 HW2           1 RES     
    7691 OW           0.8780    30.6790    12.4510 OW            1 RES     
    7692 HW1          1.7740    30.7680    12.0160 HW1           1 RES     
    7693 HW2          0.7760    31.3860    13.1510 HW2           1 RES     
    7694 OW          31.4920    11.5620     1.8100 OW            1 RES     
    7695 HW1         30.6970    12.1660     1.7880 HW1           1 RES     
    7696 HW2         32.3170    12.1020     1.9760 HW2           1 RES     
    7697 OW          39.6440    37.8760    14.8770 OW            1 RES     
    7698 HW1         38.7610    37.4090    14.8560 HW1           1 RES     
    7699 HW2         39.5550    38.7780    14.4550 HW2           1 RES     
    7700 OW          38.6260    35.9180    16.9630 OW            1 RES     
    7701 HW1         39.1740    35.4040    16.3030 HW1           1 RES     
    7702 HW2         37.7090    36.0650    16.5940 HW2           1 RES     
    7703 OW           6.5540     2.6080     3.9190 OW            1 RES     
    7704 HW1          7.1560     2.9090     4.6580 HW1           1 RES     
    7705 HW2          6.5500     3.2940     3.1920 HW2           1 RES     
    7706 OW          31.6670     9.5790    10.1660 OW            1 RES     
    7707 HW1         32.2910    10.1010    10.7460 HW1           1 RES     
    7708 HW2         30.8770    10.1450     9.9310 HW2           1 RES     
    7709 OW          43.3760    15.4340    16.5080 OW            1 RES     
    7710 HW1         44.0500    15.1610    15.8230 HW1           1 RES     
    7711 HW2         43.0220    16.3420    16.2850 HW2           1 RES     
    7712 OW          12.6910    22.8410    11.7640 OW            1 RES     
    7713 HW1         13.0840    22.7550    12.6790 HW1           1 RES     
    7714 HW2         13.2300    23.4910    11.2290 HW2           1 RES     
    7715 OW          34.9010    18.5910     8.5840 OW            1 RES     
    7716 HW1         34.4250    17.8740     8.0760 HW1           1 RES     
    7717 HW2         35.0320    18.2970     9.5320 HW2           1 RES     
    7718 OW          45.0010    19.5950     7.8660 OW            1 RES     
    7719 HW1         45.4030    20.5090     7.8240 HW1           1 RES     
    7720 HW2         44.0050    19.6650     7.8080 HW2           1 RES     
    7721 OW          21.4400    39.6940     8.2350 OW            1 RES     
    7722 HW1         21.9440    39.7460     9.0960 HW1           1 RES     
    7723 HW2         20.4610    39.7990     8.4140 HW2           1 RES     
    7724 OW          38.5110     6.7160     3.8260 OW            1 RES     
    7725 HW1         38.9700     7.5850     3.6440 HW1           1 RES     
    7726 HW2         37.8500     6.5280     3.1000 HW2           1 RES     
    7727 OW          37.7830    25.5840    14.0280 OW            1 RES     
    7728 HW1         38.5250    24.9140    14.0150 HW1           1 RES     
    7729 HW2         38.1640    26.5060    13.9500 HW2           1 RES     
    7730 OW           7.8740     5.3940     9.9330 OW            1 RES     
    7731 HW1          7.3840     5.7650     9.1460 HW1           1 RES     
    7732 HW2          8.8590     5.4960     9.7910 HW2           1 RES     
    7733 OW          -4.0440    21.2370     9.4530 OW            1 RES     
    7734 HW1         -3.1690    21.0000     9.0320 HW1           1 RES     
    7735 HW2         -3.9920    22.1610     9.8340 HW2           1 RES     
    7736 OW          32.8010    40.1880     3.7700 OW            1 RES     
    7737 HW1         32.5750    41.1610     3.7220 HW1           1 RES     
    7738 HW2         33.7950    40.0760     3.7820 HW2           1 RES     
    7739 OW           3.6620    33.7870    10.6630 OW            1 RES     
    7740 HW1          4.4100    33.1250    10.6830 HW1           1 RES     
    7741 HW2          2.9840    33.5050     9.9840 HW2           1 RES     
    7742 OW           8.9290    23.5260    13.3410 OW            1 RES     
    7743 HW1          8.9020    24.1020    14.1570 HW1           1 RES     
    7744 HW2          9.6530    22.8440    13.4370 HW2           1 RES     
    7745 OW          44.6080    23.4510    10.5190 OW            1 RES     
    7746 HW1         43.7880    22.9320    10.2810 HW1           1 RES     
    7747 HW2         45.4030    22.8440    10.5040 HW2           1 RES     
    7748 OW          23.3880     7.6390    15.1520 OW            1 RES     
    7749 HW1         22.9840     6.7370    15.0070 HW1           1 RES     
    7750 HW2         22.8300     8.3330    14.6960 HW2           1 RES     
    7751 OW          19.8240    26.0860    10.2690 OW            1 RES     
    7752 HW1         20.5090    25.3660    10.1630 HW1           1 RES     
    7753 HW2         19.2700    26.1450     9.4380 HW2           1 RES     
    7754 OW          27.4430     4.1400     2.8170 OW            1 RES     
    7755 HW1         27.9260     4.9590     3.1260 HW1           1 RES     
    7756 HW2         28.0170     3.3360     2.9710 HW2           1 RES     
    7757 OW          21.8670    34.8470    15.2950 OW            1 RES     
    7758 HW1         21.4050    35.5610    14.7700 HW1           1 RES     
    7759 HW2         21.1990    34.3590    15.8570 HW2           1 RES     
    7760 OW          25.3850    42.4730     3.4360 OW            1 RES     
    7761 HW1         26.0130    42.6560     2.6800 HW1           1 RES     
    7762 HW2         25.3360    43.2750     4.0310 HW2           1 RES     
    7763 OW          28.6320    27.1360    15.1400 OW            1 RES     
    7764 HW1         28.4020    27.9790    15.6240 HW1           1 RES     
    7765 HW2         28.4850    26.3530    15.7440 HW2           1 RES     
    7766 OW          37.0940     4.3300     4.6120 OW            1 RES     
    7767 HW1         37.1140     3.4830     5.1430 HW1           1 RES     
    7768 HW2         37.7180     4.9950     5.0230 HW2           1 RES     
    7769 OW          42.2370    14.3340     6.7810 OW            1 RES     
    7770 HW1         42.8200    14.6290     7.5370 HW1           1 RES     
    7771 HW2         41.6780    15.1040     6.4710 HW2           1 RES     
    7772 OW          20.5910    31.2560     7.7880 OW            1 RES     
    7773 HW1         21.1920    31.5340     8.5360 HW1           1 RES     
    7774 HW2         19.8500    30.6880     8.1480 HW2           1 RES     
    7775 OW          38.0110    31.6920    14.4740 OW            1 RES     
    7776 HW1         37.2640    31.3600    13.9000 HW1           1 RES     
    7777 HW2         37.8050    32.6190    14.7880 HW2           1 RES     
    7778 OW           9.5850    33.1260    11.8190 OW            1 RES     
    7779 HW1         10.3560    33.6050    11.4000 HW1           1 RES     
    7780 HW2          9.4240    32.2660    11.3340 HW2           1 RES     
    7781 OW          35.3290    31.6150    16.7090 OW            1 RES     
    7782 HW1         36.2010    32.0520    16.9230 HW1           1 RES     
    7783 HW2         35.2140    30.8000    17.2780 HW2           1 RES     
    7784 OW          27.5380    13.8960    14.0930 OW            1 RES     
    7785 HW1         28.5240    13.9170    14.2540 HW1           1 RES     
    7786 HW2         27.1890    12.9760    14.2720 HW2           1 RES     
    7787 OW          44.3380    30.6410    11.4470 OW            1 RES     
    7788 HW1         43.5710    30.6470    10.8070 HW1           1 RES     
    7789 HW2         44.8400    31.5030    11.3740 HW2           1 RES     
    7790 OW           7.9990     7.7660     1.7860 OW            1 RES     
    7791 HW1          8.3130     8.7140     1.8020 HW1           1 RES     
    7792 HW2          6.9990     7.7450     1.7920 HW2           1 RES     
    7793 OW          21.2180    15.5230    13.1380 OW            1 RES     
    7794 HW1         20.3050    15.4880    12.7330 HW1           1 RES     
    7795 HW2         21.7430    14.7220    12.8500 HW2           1 RES     
    7796 OW          13.0360    16.5030     8.7080 OW            1 RES     
    7797 HW1         12.4530    15.7000     8.5900 HW1           1 RES     
    7798 HW2         13.9820    16.2110     8.8500 HW2           1 RES     
    7799 OW          11.7050    42.3330     8.9070 OW            1 RES     
    7800 HW1         11.9600    42.9890     9.6160 HW1           1 RES     
    7801 HW2         10.7080    42.2690     8.8530 HW2           1 RES     
    7802 OW          28.8740    43.2760    16.2350 OW            1 RES     
    7803 HW1         28.7030    42.7160    17.0460 HW1           1 RES     
    7804 HW2         29.8120    43.1300    15.9210 HW2           1 RES     
    7805 OW          13.9660    32.6430     3.0780 OW            1 RES     
    7806 HW1         13.0110    32.4270     2.8780 HW1           1 RES     
    7807 HW2         14.4980    31.7970     3.1200 HW2           1 RES     
    7808 OW          20.4300    -0.1250    11.9660 OW            1 RES     
    7809 HW1         20.6760    -0.2310    12.9290 HW1           1 RES     
    7810 HW2         20.7740     0.7520    11.6280 HW2           1 RES     
    7811 OW          12.8380    32.9530     6.5970 OW            1 RES     
    7812 HW1         11.8460    33.0570     6.6560 HW1           1 RES     
    7813 HW2         13.2710    33.8540     6.6370 HW2           1 RES     
    7814 OW          30.1770    19.5450    10.8190 OW            1 RES     
    7815 HW1         30.4150    20.0460    11.6500 HW1           1 RES     
    7816 HW2         31.0040    19.3750    10.2820 HW2           1 RES     
    7817 OW          12.5200    38.0340    13.5520 OW            1 RES     
    7818 HW1         13.2660    38.6940    13.6280 HW1           1 RES     
    7819 HW2         11.7020    38.4030    13.9940 HW2           1 RES     
    7820 OW          42.2500    10.9090     7.5960 OW            1 RES     
    7821 HW1         42.8300    10.1110     7.7550 HW1           1 RES     
    7822 HW2         42.1660    11.0710     6.6130 HW2           1 RES     
    7823 OW          26.0360     9.7150    14.5140 OW            1 RES     
    7824 HW1         26.9800     9.4010    14.5980 HW1           1 RES     
    7825 HW2         26.0270    10.6940    14.3060 HW2           1 RES     
    7826 OW          28.2500    25.4770    11.9390 OW            1 RES     
    7827 HW1         28.4810    26.1190    12.6700 HW1           1 RES     
    7828 HW2         28.7800    24.6370    12.0530 HW2           1 RES     
    7829 OW          29.5240     9.8430     4.0990 OW            1 RES     
    7830 HW1         29.3480     8.9980     3.5960 HW1           1 RES     
    7831 HW2         29.3800     9.6880     5.0760 HW2           1 RES     
    7832 OW          27.4260    19.0020     2.0760 OW            1 RES     
    7833 HW1         27.7530    19.9460     2.0950 HW1           1 RES     
    7834 HW2         28.1850    18.3810     2.2740 HW2           1 RES     
    7835 OW           6.8270    39.7310    15.7890 OW            1 RES     
    7836 HW1          7.5510    40.1010    15.2090 HW1           1 RES     
    7837 HW2          6.4670    40.4560    16.3770 HW2           1 RES     
    7838 OW           0.2160    27.9940    12.4410 OW            1 RES     
    7839 HW1          1.0930    28.4730    12.4590 HW1           1 RES     
    7840 HW2         -0.5240    28.6440    12.6160 HW2           1 RES     
    7841 OW          29.3120     7.4980     9.8910 OW            1 RES     
    7842 HW1         30.0670     7.1060    10.4150 HW1           1 RES     
    7843 HW2         29.4140     8.4920     9.8530 HW2           1 RES     
    7844 OW          -4.4670    14.5430     4.1340 OW            1 RES     
    7845 HW1         -4.4290    13.5460     4.0770 HW1           1 RES     
    7846 HW2         -5.4220    14.8390     4.1670 HW2           1 RES     
    7847 OW          10.7170    27.3110     8.7490 OW            1 RES     
    7848 HW1         10.9660    26.3900     9.0430 HW1           1 RES     
    7849 HW2          9.7890    27.3030     8.3740 HW2           1 RES     
    7850 OW          19.4450     1.2290    16.2820 OW            1 RES     
    7851 HW1         19.7020     2.1360    16.6150 HW1           1 RES     
    7852 HW2         19.1690     1.2910    15.3220 HW2           1 RES     
    7853 OW          13.3100    -4.3140    13.9200 OW            1 RES     
    7854 HW1         14.3090    -4.3170    13.8990 HW1           1 RES     
    7855 HW2         12.9570    -4.0930    13.0110 HW2           1 RES     
    7856 OW          -0.4040    18.3730     8.9860 OW            1 RES     
    7857 HW1          0.3360    18.9480     8.6400 HW1           1 RES     
    7858 HW2         -0.7710    17.8170     8.2400 HW2           1 RES     
    7859 OW          -1.4650    40.1510    14.2040 OW            1 RES     
    7860 HW1         -0.4650    40.1640    14.2030 HW1           1 RES     
    7861 HW2         -1.7860    39.2050    14.2380 HW2           1 RES     
    7862 OW          32.3010    31.6050    15.2640 OW            1 RES     
    7863 HW1         32.6670    31.4090    14.3550 HW1           1 RES     
    7864 HW2         31.3630    31.9420    15.1800 HW2           1 RES     
    7865 OW          36.5670    26.5490     4.5750 OW            1 RES     
    7866 HW1         35.6930    26.3840     5.0300 HW1           1 RES     
    7867 HW2         36.7170    27.5340     4.4870 HW2           1 RES     
    7868 OW          40.3410     9.9530     3.5410 OW            1 RES     
    7869 HW1         40.7720    10.1410     2.6590 HW1           1 RES     
    7870 HW2         40.4850    10.7290     4.1550 HW2           1 RES     
    7871 OW           6.1890    10.5390    12.5900 OW            1 RES     
    7872 HW1          5.2620    10.7820    12.8720 HW1           1 RES     
    7873 HW2          6.3470     9.5670    12.7660 HW2           1 RES     
    7874 OW          23.1060    18.1460    17.3940 OW            1 RES     
    7875 HW1         23.0430    18.5060    16.4640 HW1           1 RES     
    7876 HW2         23.0360    17.1480    17.3710 HW2           1 RES     
    7877 OW          19.5810    20.7300    12.5490 OW            1 RES     
    7878 HW1         19.8360    20.0670    13.2530 HW1           1 RES     
    7879 HW2         20.3620    21.3220    12.3500 HW2           1 RES     
    7880 OW          17.7560     2.0910     6.2620 OW            1 RES     
    7881 HW1         18.4740     2.6250     5.8170 HW1           1 RES     
    7882 HW2         17.1730     1.6700     5.5660 HW2           1 RES     
    7883 OW           2.6770    21.5890    12.7060 OW            1 RES     
    7884 HW1          2.8640    22.3730    12.1150 HW1           1 RES     
    7885 HW2          2.7470    20.7450    12.1740 HW2           1 RES     
    7886 OW           8.3710    30.9330     1.7860 OW            1 RES     
    7887 HW1          7.4400    31.2890     1.8680 HW1           1 RES     
    7888 HW2          8.5010    30.1860     2.4390 HW2           1 RES     
    7889 OW          -0.9920    23.2670     9.3970 OW            1 RES     
    7890 HW1         -0.3700    23.4690     8.6410 HW1           1 RES     
    7891 HW2         -0.4980    23.3400    10.2640 HW2           1 RES     
    7892 OW          11.2200    30.7840     4.2710 OW            1 RES     
    7893 HW1         10.9490    29.8220     4.2820 HW1           1 RES     
    7894 HW2         12.2180    30.8500     4.2770 HW2           1 RES     
    7895 OW          27.1430     3.7360     5.6850 OW            1 RES     
    7896 HW1         26.3310     3.6640     5.1080 HW1           1 RES     
    7897 HW2         27.9100     4.0770     5.1410 HW2           1 RES     
    7898 OW          22.1500    28.5780     5.7770 OW            1 RES     
    7899 HW1         22.2670    27.5850     5.7740 HW1           1 RES     
    7900 HW2         22.9730    29.0120     5.4110 HW2           1 RES     
    7901 OW          14.4070    27.7270    16.2280 OW            1 RES     
    7902 HW1         15.1170    28.2230    16.7270 HW1           1 RES     
    7903 HW2         14.7650    27.4340    15.3410 HW2           1 RES     
    7904 OW           6.6950    33.0900     7.4640 OW            1 RES     
    7905 HW1          6.4490    32.1540     7.7150 HW1           1 RES     
    7906 HW2          6.6520    33.6750     8.2730 HW2           1 RES     
    7907 OW          30.7810     0.2010    12.9940 OW            1 RES     
    7908 HW1         31.3920     0.9500    12.7390 HW1           1 RES     
    7909 HW2         31.0750    -0.6390    12.5370 HW2           1 RES     
    7910 OW          19.7990     3.9860     8.9060 OW            1 RES     
    7911 HW1         20.1480     4.0280     9.8410 HW1           1 RES     
    7912 HW2         19.5690     3.0390     8.6770 HW2           1 RES     
    7913 OW          15.0720    24.0670    12.3550 OW            1 RES     
    7914 HW1         15.6170    23.7570    11.5780 HW1           1 RES     
    7915 HW2         15.5360    23.8240    13.2070 HW2           1 RES     
    7916 OW          36.8520    43.0910     3.1950 OW            1 RES     
    7917 HW1         37.7390    43.2740     2.7700 HW1           1 RES     
    7918 HW2         36.6130    42.1280     3.0680 HW2           1 RES     
    7919 OW          24.7120    21.1680     7.1990 OW            1 RES     
    7920 HW1         23.8730    20.6250     7.1750 HW1           1 RES     
    7921 HW2         24.5630    21.9890     7.7490 HW2           1 RES     
    7922 OW           4.9880     8.4850     6.0320 OW            1 RES     
    7923 HW1          4.8750     7.4940     6.0970 HW1           1 RES     
    7924 HW2          5.8380     8.7550     6.4840 HW2           1 RES     
    7925 OW           3.3020    25.2650     2.9530 OW            1 RES     
    7926 HW1          2.5970    25.8690     2.5840 HW1           1 RES     
    7927 HW2          4.1820    25.7410     2.9560 HW2           1 RES     
    7928 OW          -2.6130     1.1230    13.2760 OW            1 RES     
    7929 HW1         -3.2360     0.3530    13.4070 HW1           1 RES     
    7930 HW2         -3.1400     1.9700    13.2010 HW2           1 RES     
    7931 OW          24.9670    21.3790    11.0000 OW            1 RES     
    7932 HW1         25.1680    21.5970    11.9550 HW1           1 RES     
    7933 HW2         25.5270    20.6020    10.7100 HW2           1 RES     
    7934 OW          24.3980     7.2380     2.2460 OW            1 RES     
    7935 HW1         23.7210     7.9460     2.0450 HW1           1 RES     
    7936 HW2         24.8320     7.4310     3.1260 HW2           1 RES     
    7937 OW          10.1230    34.5330     1.7890 OW            1 RES     
    7938 HW1         11.1210    34.5270     1.8270 HW1           1 RES     
    7939 HW2          9.7760    33.6130     1.9750 HW2           1 RES     
    7940 OW          31.4350    39.1380     5.7750 OW            1 RES     
    7941 HW1         30.9050    39.7360     5.1750 HW1           1 RES     
    7942 HW2         32.3670    39.4910     5.8590 HW2           1 RES     
    7943 OW          31.8020    -2.6590     3.2510 OW            1 RES     
    7944 HW1         32.6680    -2.4830     2.7850 HW1           1 RES     
    7945 HW2         31.9510    -3.3050     4.0000 HW2           1 RES     
    7946 OW          34.0510    -3.0520     6.4660 OW            1 RES     
    7947 HW1         34.9510    -2.9280     6.0490 HW1           1 RES     
    7948 HW2         33.6650    -2.1600     6.6990 HW2           1 RES     
    7949 OW          29.3780    11.0380     8.5780 OW            1 RES     
    7950 HW1         29.1840    11.9610     8.2480 HW1           1 RES     
    7951 HW2         28.5750    10.6770     9.0520 HW2           1 RES     
    7952 OW          14.3600    10.6670     6.1020 OW            1 RES     
    7953 HW1         14.5120    11.6490     6.2090 HW1           1 RES     
    7954 HW2         13.6630    10.3640     6.7530 HW2           1 RES     
    7955 OW           1.8870    13.6940    17.3110 OW            1 RES     
    7956 HW1          1.7380    12.7060    17.3500 HW1           1 RES     
    7957 HW2          2.8670    13.8820    17.2470 HW2           1 RES     
    7958 OW          28.4190    -0.7890     9.1870 OW            1 RES     
    7959 HW1         28.3820    -1.4340     8.4250 HW1           1 RES     
    7960 HW2         29.3150    -0.8450     9.6280 HW2           1 RES     
    7961 OW          12.5990     7.6380     2.7740 OW            1 RES     
    7962 HW1         13.4680     7.7810     3.2470 HW1           1 RES     
    7963 HW2         12.7530     7.6350     1.7860 HW2           1 RES     
    7964 OW          38.2610    11.1570    14.9400 OW            1 RES     
    7965 HW1         39.1920    10.8780    15.1710 HW1           1 RES     
    7966 HW2         37.6490    10.3690    15.0070 HW2           1 RES     
    7967 OW          16.7100    11.4770     6.3370 OW            1 RES     
    7968 HW1         16.7630    11.2550     5.3640 HW1           1 RES     
    7969 HW2         17.6300    11.6370     6.6940 HW2           1 RES     
    7970 OW          45.0910    38.6860     8.7550 OW            1 RES     
    7971 HW1         45.2310    39.6420     8.4990 HW1           1 RES     
    7972 HW2         44.1220    38.4560     8.6700 HW2           1 RES     
    7973 OW           7.8170    35.2940    13.3170 OW            1 RES     
    7974 HW1          8.2420    35.0830    12.4370 HW1           1 RES     
    7975 HW2          8.1840    36.1570    13.6660 HW2           1 RES     
    7976 OW          22.2600    24.4050     2.5360 OW            1 RES     
    7977 HW1         21.7710    23.6490     2.9690 HW1           1 RES     
    7978 HW2         21.7340    25.2490     2.6440 HW2           1 RES     
    7979 OW          -4.7240     5.4050    12.3010 OW            1 RES     
    7980 HW1         -3.7400     5.5470    12.4090 HW1           1 RES     
    7981 HW2         -4.9090     4.4300    12.1780 HW2           1 RES     
    7982 OW          18.8930    -4.1230     4.4380 OW            1 RES     
    7983 HW1         18.6190    -3.1630     4.4970 HW1           1 RES     
    7984 HW2         19.7220    -4.2000     3.8850 HW2           1 RES     
    7985 OW          35.3730     4.2740    10.2780 OW            1 RES     
    7986 HW1         34.7200     3.5180    10.2510 HW1           1 RES     
    7987 HW2         36.3050     3.9110    10.2800 HW2           1 RES     
    7988 OW          16.8260    17.2270     3.2640 OW            1 RES     
    7989 HW1         17.6660    16.7700     2.9740 HW1           1 RES     
    7990 HW2         16.0370    16.6640     3.0170 HW2           1 RES     
    7991 OW          44.0530    11.9140     9.9870 OW            1 RES     
    7992 HW1         43.7730    11.0750     9.5220 HW1           1 RES     
    7993 HW2         43.3760    12.1520    10.6840 HW2           1 RES     
    7994 OW           3.3400    15.2870    13.3410 OW            1 RES     
    7995 HW1          2.3520    15.1400    13.3570 HW1           1 RES     
    7996 HW2          3.8100    14.4040    13.3380 HW2           1 RES     
    7997 OW           2.3400    22.8560     9.6580 OW            1 RES     
    7998 HW1          1.6780    23.0350    10.3840 HW1           1 RES     
    7999 HW2          3.2570    23.1040     9.9740 HW2           1 RES     
    8000 OW           3.3760    19.7100     8.0220 OW            1 RES     
    8001 HW1          2.9000    18.8380     8.1320 HW1           1 RES     
    8002 HW2          3.4090    19.9520     7.0520 HW2           1 RES     
    8003 OW          27.7940    24.4380    14.9090 OW            1 RES     
    8004 HW1         28.5370    24.5890    14.2570 HW1           1 RES     
    8005 HW2         26.9150    24.5740    14.4510 HW2           1 RES     
    8006 OW          31.9580    12.0040    16.0600 OW            1 RES     
    8007 HW1         31.6090    12.8280    16.5050 HW1           1 RES     
    8008 HW2         32.2780    12.2310    15.1400 HW2           1 RES     
    8009 OW          20.4940     8.8490     2.8920 OW            1 RES     
    8010 HW1         19.5190     9.0580     2.8240 HW1           1 RES     
    8011 HW2         20.6320     7.8620     2.7990 HW2           1 RES     
    8012 OW           6.8960     5.1780     6.5830 OW            1 RES     
    8013 HW1          6.5050     4.2580     6.5540 HW1           1 RES     
    8014 HW2          6.1750     5.8410     6.7870 HW2           1 RES     
    8015 OW          -1.2560    14.4510     6.5830 OW            1 RES     
    8016 HW1         -0.3800    14.0340     6.8260 HW1           1 RES     
    8017 HW2         -1.1040    15.3890     6.2720 HW2           1 RES     
    8018 OW          32.9660    37.2200     7.0140 OW            1 RES     
    8019 HW1         33.9450    37.4130     6.9550 HW1           1 RES     
    8020 HW2         32.5030    37.9780     7.4740 HW2           1 RES     
    8021 OW          43.7690    30.0790     7.9410 OW            1 RES     
    8022 HW1         43.2170    30.8830     8.1630 HW1           1 RES     
    8023 HW2         44.7120    30.3600     7.7650 HW2           1 RES     
    8024 OW           6.2670     2.0550     8.9700 OW            1 RES     
    8025 HW1          6.8450     2.8540     8.8090 HW1           1 RES     
    8026 HW2          6.8390     1.2380     9.0470 HW2           1 RES     
    8027 OW          20.7320     8.3960    15.3590 OW            1 RES     
    8028 HW1         20.2740     9.2040    15.7290 HW1           1 RES     
    8029 HW2         21.1880     7.9030    16.1000 HW2           1 RES     
    8030 OW          18.4650    30.7940    11.0030 OW            1 RES     
    8031 HW1         18.0940    29.8900    10.7920 HW1           1 RES     
    8032 HW2         17.7160    31.4160    11.2330 HW2           1 RES     
    8033 OW          37.6740    24.2950    11.2090 OW            1 RES     
    8034 HW1         37.8530    24.9960    11.8990 HW1           1 RES     
    8035 HW2         38.0880    23.4310    11.4970 HW2           1 RES     
    8036 OW          16.1830     6.3630    10.5300 OW            1 RES     
    8037 HW1         16.1460     5.4340    10.1620 HW1           1 RES     
    8038 HW2         17.1330     6.6060    10.7260 HW2           1 RES     
    8039 OW          35.2600    42.2670     4.7970 OW            1 RES     
    8040 HW1         34.3180    41.9360     4.8340 HW1           1 RES     
    8041 HW2         35.2620    43.2670     4.7740 HW2           1 RES     
    8042 OW          13.5770    26.7980     6.0350 OW            1 RES     
    8043 HW1         14.2660    27.2230     5.4470 HW1           1 RES     
    8044 HW2         13.8750    26.8490     6.9880 HW2           1 RES     
    8045 OW          18.5990    22.5710    16.8130 OW            1 RES     
    8046 HW1         19.2850    21.8820    16.5820 HW1           1 RES     
    8047 HW2         18.7450    23.3880    16.2540 HW2           1 RES     
    8048 OW          17.3180    41.5130    11.7610 OW            1 RES     
    8049 HW1         17.4960    40.5350    11.6580 HW1           1 RES     
    8050 HW2         18.1860    42.0010    11.8550 HW2           1 RES     
    8051 OW           5.9000    29.2490     5.3820 OW            1 RES     
    8052 HW1          6.0690    29.7350     4.5250 HW1           1 RES     
    8053 HW2          6.4760    29.6340     6.1030 HW2           1 RES     
    8054 OW          24.6000     2.5210    14.2180 OW            1 RES     
    8055 HW1         25.3010     3.2320    14.2610 HW1           1 RES     
    8056 HW2         23.6950     2.9370    14.3110 HW2           1 RES     
    8057 OW          18.6920    38.1140    16.9800 OW            1 RES     
    8058 HW1         18.7460    39.0210    17.3970 HW1           1 RES     
    8059 HW2         19.5330    37.6070    17.1710 HW2           1 RES     
    8060 OW          17.2930    32.5900    16.7870 OW            1 RES     
    8061 HW1         16.3210    32.5800    16.5550 HW1           1 RES     
    8062 HW2         17.4990    31.8220    17.3940 HW2           1 RES     
    8063 OW          36.5360    30.5410     2.7680 OW            1 RES     
    8064 HW1         35.5690    30.2960     2.8230 HW1           1 RES     
    8065 HW2         37.0930    29.7110     2.7890 HW2           1 RES     
    8066 OW          25.3090    35.3640    16.9950 OW            1 RES     
    8067 HW1         26.0480    36.0290    17.1020 HW1           1 RES     
    8068 HW2         25.6570    34.4450    17.1780 HW2           1 RES     
    8069 OW          22.9590    17.3750    14.5790 OW            1 RES     
    8070 HW1         23.7440    17.2890    13.9660 HW1           1 RES     
    8071 HW2         22.9650    16.6210    15.2360 HW2           1 RES     
    8072 OW          28.1840    11.9070     3.2890 OW            1 RES     
    8073 HW1         29.1810    11.8860     3.3580 HW1           1 RES     
    8074 HW2         27.8320    10.9710     3.2580 HW2           1 RES     
    8075 OW          43.2960    27.7010     3.6700 OW            1 RES     
    8076 HW1         43.9290    28.0060     2.9590 HW1           1 RES     
    8077 HW2         42.6610    27.0300     3.2870 HW2           1 RES     
    8078 OW          41.0940    36.0450    17.1660 OW            1 RES     
    8079 HW1         40.8530    36.8290    16.5940 HW1           1 RES     
    8080 HW2         42.0890    35.9500    17.2000 HW2           1 RES     
    8081 OW          23.4210    24.8720    11.3870 OW            1 RES     
    8082 HW1         23.0490    25.0780    10.4830 HW1           1 RES     
    8083 HW2         23.6760    23.9060    11.4320 HW2           1 RES     
    8084 OW           8.7520    30.9640    15.3700 OW            1 RES     
    8085 HW1          9.4210    31.6700    15.6000 HW1           1 RES     
    8086 HW2          9.1870    30.0640    15.4170 HW2           1 RES     
    8087 OW          28.5430     7.6640    16.8720 OW            1 RES     
    8088 HW1         29.5080     7.5930    17.1240 HW1           1 RES     
    8089 HW2         28.0820     6.7990    17.0720 HW2           1 RES     
    8090 OW          22.8070    22.1770    14.2710 OW            1 RES     
    8091 HW1         23.4040    21.6030    13.7120 HW1           1 RES     
    8092 HW2         21.9890    21.6610    14.5250 HW2           1 RES     
    8093 OW          27.9680     5.3140    10.7660 OW            1 RES     
    8094 HW1         28.7970     5.3210    10.2080 HW1           1 RES     
    8095 HW2         28.1460     5.7740    11.6360 HW2           1 RES     
    8096 OW          -5.2360     2.2630    11.7760 OW            1 RES     
    8097 HW1         -5.3220     1.7830    12.6480 HW1           1 RES     
    8098 HW2         -6.1070     2.6960    11.5450 HW2           1 RES     
    8099 OW          11.0890    40.1080     7.0460 OW            1 RES     
    8100 HW1         11.8850    39.5310     6.8650 HW1           1 RES     
    8101 HW2         11.3820    41.0600     7.1420 HW2           1 RES     
    8102 OW           5.5470    36.9780    12.2860 OW            1 RES     
    8103 HW1          5.3780    36.4980    13.1470 HW1           1 RES     
    8104 HW2          5.0500    37.8460    12.2840 HW2           1 RES     
    8105 OW          31.7840    23.8260     5.3710 OW            1 RES     
    8106 HW1         32.0250    23.5360     6.2960 HW1           1 RES     
    8107 HW2         30.8880    23.4540     5.1270 HW2           1 RES     
    8108 OW          45.3910    22.8760     2.3320 OW            1 RES     
    8109 HW1         44.8630    23.5420     1.8070 HW1           1 RES     
    8110 HW2         45.4040    22.0020     1.8460 HW2           1 RES     
    8111 OW          35.4330    14.0000    12.6120 OW            1 RES     
    8112 HW1         34.7030    14.6810    12.5690 HW1           1 RES     
    8113 HW2         36.3150    14.4440    12.4510 HW2           1 RES     
    8114 OW          -0.1630    34.4100    17.3160 OW            1 RES     
    8115 HW1         -1.1590    34.3230    17.2910 HW1           1 RES     
    8116 HW2          0.2490    33.5030    17.3970 HW2           1 RES     
    8117 OW          40.7440    13.9150     8.6270 OW            1 RES     
    8118 HW1         41.2170    13.0700     8.3770 HW1           1 RES     
    8119 HW2         41.1510    14.2910     9.4600 HW2           1 RES     
    8120 OW          42.8510    -3.3390    15.5010 OW            1 RES     
    8121 HW1         41.9830    -3.2720    15.0110 HW1           1 RES     
    8122 HW2         42.9780    -4.2750    15.8300 HW2           1 RES     
    8123 OW          29.1910    30.5700     7.6620 OW            1 RES     
    8124 HW1         29.4980    31.3210     7.0780 HW1           1 RES     
    8125 HW2         29.7730    30.5210     8.4750 HW2           1 RES     
    8126 OW          34.9340    13.7780     3.1100 OW            1 RES     
    8127 HW1         35.4060    12.8990     3.0450 HW1           1 RES     
    8128 HW2         34.6400    14.0670     2.1980 HW2           1 RES     
    8129 OW          14.8450    38.9930     5.8080 OW            1 RES     
    8130 HW1         14.8700    39.6260     6.5810 HW1           1 RES     
    8131 HW2         15.7580    38.9230     5.4040 HW2           1 RES     
    8132 OW          24.0630    38.4170    16.8550 OW            1 RES     
    8133 HW1         24.8950    38.5730    17.3870 HW1           1 RES     
    8134 HW2         23.4190    37.8730    17.3940 HW2           1 RES     
    8135 OW          22.7000    13.9050    14.9100 OW            1 RES     
    8136 HW1         23.4830    14.4850    15.1320 HW1           1 RES     
    8137 HW2         22.6920    13.1090    15.5150 HW2           1 RES     
    8138 OW          32.6390    40.9390     8.3050 OW            1 RES     
    8139 HW1         33.6360    40.8730     8.3290 HW1           1 RES     
    8140 HW2         32.2440    40.0220     8.2440 HW2           1 RES     
    8141 OW          14.5140    13.0680     7.8900 OW            1 RES     
    8142 HW1         14.4910    14.0570     7.7440 HW1           1 RES     
    8143 HW2         15.4590    12.7720     8.0290 HW2           1 RES     
    8144 OW           6.7210    21.5070     3.1790 OW            1 RES     
    8145 HW1          6.1460    21.2160     2.4150 HW1           1 RES     
    8146 HW2          6.7590    22.5060     3.2080 HW2           1 RES     
    8147 OW          41.8540    13.8390    12.8650 OW            1 RES     
    8148 HW1         41.9450    12.8590    13.0370 HW1           1 RES     
    8149 HW2         42.2320    14.3510    13.6370 HW2           1 RES     
    8150 OW          12.0950     7.0380     4.8300 OW            1 RES     
    8151 HW1         11.1670     7.0670     4.4620 HW1           1 RES     
    8152 HW2         12.3900     6.0870     4.9200 HW2           1 RES     
    8153 OW          14.3960    43.2760    15.7850 OW            1 RES     
    8154 HW1         15.0620    42.6200    16.1390 HW1           1 RES     
    8155 HW2         13.4820    42.8700    15.8090 HW2           1 RES     
    8156 OW          25.3230    15.3490    15.9740 OW            1 RES     
    8157 HW1         24.6230    15.7990    16.5280 HW1           1 RES     
    8158 HW2         25.9160    14.8020    16.5640 HW2           1 RES     
    8159 OW          13.4520    16.5450     3.4340 OW            1 RES     
    8160 HW1         13.2720    15.6920     2.9440 HW1           1 RES     
    8161 HW2         12.9230    16.5600     4.2830 HW2           1 RES     
    8162 OW          30.7990    36.6530     8.2330 OW            1 RES     
    8163 HW1         29.9550    36.1210     8.3030 HW1           1 RES     
    8164 HW2         31.5850    36.0360     8.2550 HW2           1 RES     
    8165 OW          15.3840     8.9640     2.2630 OW            1 RES     
    8166 HW1         15.5350     8.0060     2.5050 HW1           1 RES     
    8167 HW2         14.5100     9.0550     1.7870 HW2           1 RES     
    8168 OW          42.3130    36.4920     3.0810 OW            1 RES     
    8169 HW1         41.7460    36.4370     3.9030 HW1           1 RES     
    8170 HW2         42.6560    35.5810     2.8510 HW2           1 RES     
    8171 OW          38.8960     8.0560    14.8580 OW            1 RES     
    8172 HW1         39.6890     8.0020    14.2520 HW1           1 RES     
    8173 HW2         39.0780     8.7160    15.5870 HW2           1 RES     
    8174 OW           0.4960    -2.6420     9.4460 OW            1 RES     
    8175 HW1          0.3320    -3.2260    10.2400 HW1           1 RES     
    8176 HW2          1.4100    -2.8240     9.0810 HW2           1 RES     
    8177 OW          10.2940    36.0030    10.1740 OW            1 RES     
    8178 HW1         11.0470    35.3500    10.2520 HW1           1 RES     
    8179 HW2          9.4370    35.5080    10.0330 HW2           1 RES     
    8180 OW          13.0560    22.9090     2.4100 OW            1 RES     
    8181 HW1         13.1230    22.7490     3.3940 HW1           1 RES     
    8182 HW2         13.7240    22.3390     1.9320 HW2           1 RES     
    8183 OW          23.7780     1.4640     7.3970 OW            1 RES     
    8184 HW1         23.6240     1.0820     8.3080 HW1           1 RES     
    8185 HW2         23.0010     2.0400     7.1400 HW2           1 RES     
    8186 OW          20.3710     8.5930     7.0710 OW            1 RES     
    8187 HW1         20.8670     7.8390     6.6430 HW1           1 RES     
    8188 HW2         19.4780     8.2700     7.3850 HW2           1 RES     
    8189 OW          10.6960     2.5100    14.0390 OW            1 RES     
    8190 HW1         11.2810     2.3630    14.8360 HW1           1 RES     
    8191 HW2         10.2490     1.6500    13.7890 HW2           1 RES     
    8192 OW          30.8190    26.1120     4.9530 OW            1 RES     
    8193 HW1         31.2220    26.9630     4.6170 HW1           1 RES     
    8194 HW2         30.0660    26.3240     5.5770 HW2           1 RES     
    8195 OW          40.8860    24.1220     3.1920 OW            1 RES     
    8196 HW1         40.2920    24.1540     3.9950 HW1           1 RES     
    8197 HW2         40.8650    23.2030     2.7980 HW2           1 RES     
    8198 OW          27.7040    34.7760    12.4510 OW            1 RES     
    8199 HW1         27.2550    33.9470    12.7840 HW1           1 RES     
    8200 HW2         27.1510    35.1870    11.7260 HW2           1 RES     
    8201 OW           5.8650     3.2000    12.5800 OW            1 RES     
    8202 HW1          6.5120     3.9050    12.8680 HW1           1 RES     
    8203 HW2          6.3540     2.4750    12.0950 HW2           1 RES     
    8204 OW           5.0720    24.1700    17.3940 OW            1 RES     
    8205 HW1          4.0780    24.0610    17.3860 HW1           1 RES     
    8206 HW2          5.3010    25.1440    17.3960 HW2           1 RES     
    8207 OW          16.5530    34.4860     7.7240 OW            1 RES     
    8208 HW1         17.1470    33.7290     7.4550 HW1           1 RES     
    8209 HW2         15.5960    34.2040     7.6480 HW2           1 RES     
    8210 OW          19.7830    41.8790     9.9040 OW            1 RES     
    8211 HW1         20.7500    41.7300     9.7000 HW1           1 RES     
    8212 HW2         19.6720    42.7560    10.3730 HW2           1 RES     
    8213 OW          10.9960    10.0780     6.6980 OW            1 RES     
    8214 HW1         11.0890     9.5870     7.5630 HW1           1 RES     
    8215 HW2         10.2690     9.6610     6.1530 HW2           1 RES     
    8216 OW          10.1790    38.4960     5.5620 OW            1 RES     
    8217 HW1         10.7720    37.7140     5.3750 HW1           1 RES     
    8218 HW2          9.2360    38.1810     5.6740 HW2           1 RES     
    8219 OW          35.2780     5.2400     2.7060 OW            1 RES     
    8220 HW1         35.1330     5.6140     1.7910 HW1           1 RES     
    8221 HW2         36.0600     4.6170     2.6920 HW2           1 RES     
    8222 OW          28.2500    11.5310     6.0150 OW            1 RES     
    8223 HW1         29.0150    11.9750     5.5500 HW1           1 RES     
    8224 HW2         27.5040    12.1870     6.1320 HW2           1 RES     
    8225 OW          26.7520    42.3770    11.5480 OW            1 RES     
    8226 HW1         25.7530    42.3630    11.5720 HW1           1 RES     
    8227 HW2         27.0810    43.2760    11.8360 HW2           1 RES     
    8228 OW          35.2610    28.1770     2.3170 OW            1 RES     
    8229 HW1         34.5070    27.6940     1.8740 HW1           1 RES     
    8230 HW2         36.1120    27.9940     1.8240 HW2           1 RES     
    8231 OW          36.6330     5.9330    11.0820 OW            1 RES     
    8232 HW1         36.1380     5.8750    11.9480 HW1           1 RES     
    8233 HW2         36.3890     6.7820    10.6130 HW2           1 RES     
    8234 OW          23.0780     6.9520     7.2500 OW            1 RES     
    8235 HW1         22.8250     6.2340     6.6030 HW1           1 RES     
    8236 HW2         23.3960     6.5370     8.1030 HW2           1 RES     
    8237 OW          19.5170    28.5070     9.1880 OW            1 RES     
    8238 HW1         18.6720    28.9210     8.8510 HW1           1 RES     
    8239 HW2         19.4000    28.2420    10.1450 HW2           1 RES     
    8240 OW           9.8360    -3.5120    10.5650 OW            1 RES     
    8241 HW1          9.8720    -2.5160    10.4910 HW1           1 RES     
    8242 HW2          8.8840    -3.8160    10.5180 HW2           1 RES     
    8243 OW           7.2970    -0.3810    14.7000 OW            1 RES     
    8244 HW1          7.0880    -0.5630    15.6600 HW1           1 RES     
    8245 HW2          7.4360     0.6010    14.5690 HW2           1 RES     
    8246 OW           9.4440     1.7870     8.5400 OW            1 RES     
    8247 HW1          8.9200     1.6130     7.7070 HW1           1 RES     
    8248 HW2          9.0520     2.5710     9.0230 HW2           1 RES     
    8249 OW           1.1050    10.2550    12.8600 OW            1 RES     
    8250 HW1          0.5480    10.5420    12.0820 HW1           1 RES     
    8251 HW2          2.0690    10.4390    12.6670 HW2           1 RES     
    8252 OW          41.8190     6.0000     6.8540 OW            1 RES     
    8253 HW1         41.2330     5.2220     6.6290 HW1           1 RES     
    8254 HW2         41.2660     6.8320     6.9010 HW2           1 RES     
    8255 OW           0.9780    25.3370     9.7570 OW            1 RES     
    8256 HW1         -0.0150    25.4000     9.6610 HW1           1 RES     
    8257 HW2          1.3530    24.7980     9.0020 HW2           1 RES     
    8258 OW          29.5870     2.8750    14.0590 OW            1 RES     
    8259 HW1         28.7240     2.4550    13.7790 HW1           1 RES     
    8260 HW2         29.4260     3.8280    14.3170 HW2           1 RES     
    8261 OW          17.7740    21.3170    13.6580 OW            1 RES     
    8262 HW1         17.5110    21.4580    12.7050 HW1           1 RES     
    8263 HW2         17.6300    22.1630    14.1730 HW2           1 RES     
    8264 OW           7.8350    18.3890    10.0660 OW            1 RES     
    8265 HW1          7.7910    19.2180    10.6210 HW1           1 RES     
    8266 HW2          7.7820    18.6320     9.0970 HW2           1 RES     
    8267 OW          17.4470    11.7980     2.0580 OW            1 RES     
    8268 HW1         18.0380    12.2620     2.7160 HW1           1 RES     
    8269 HW2         17.1460    10.9230     2.4380 HW2           1 RES     
    8270 OW          24.4150     4.8780    13.0750 OW            1 RES     
    8271 HW1         24.1090     4.1190    12.5020 HW1           1 RES     
    8272 HW2         23.7250     5.0700    13.7720 HW2           1 RES     
    8273 OW          11.0790     0.9620     6.5840 OW            1 RES     
    8274 HW1         10.9560     0.5650     7.4930 HW1           1 RES     
    8275 HW2         12.0390     0.8850     6.3130 HW2           1 RES     
    8276 OW          22.6650    34.9960    11.4920 OW            1 RES     
    8277 HW1         22.7600    35.0780    10.5000 HW1           1 RES     
    8278 HW2         21.7010    35.0790    11.7430 HW2           1 RES     
    8279 OW          32.8860    40.1250    16.5880 OW            1 RES     
    8280 HW1         33.0750    39.2470    16.1510 HW1           1 RES     
    8281 HW2         33.2200    40.8670    16.0060 HW2           1 RES     
    8282 OW          -1.7530    28.5580     6.5690 OW            1 RES     
    8283 HW1         -1.1590    28.5820     5.7660 HW1           1 RES     
    8284 HW2         -1.4630    27.8180     7.1770 HW2           1 RES     
    8285 OW          18.3130    10.2780    15.2880 OW            1 RES     
    8286 HW1         18.0870     9.3210    15.4700 HW1           1 RES     
    8287 HW2         17.4880    10.8370    15.3670 HW2           1 RES     
    8288 OW          20.1790     2.6950     2.6570 OW            1 RES     
    8289 HW1         19.2350     2.7660     2.9770 HW1           1 RES     
    8290 HW2         20.4240     3.5230     2.1530 HW2           1 RES     
    8291 OW          37.8680    12.3790    11.8060 OW            1 RES     
    8292 HW1         37.8480    12.6800    12.7590 HW1           1 RES     
    8293 HW2         37.0400    12.6890    11.3400 HW2           1 RES     
    8294 OW          18.1060    34.5820    11.0480 OW            1 RES     
    8295 HW1         17.8840    33.6620    11.3690 HW1           1 RES     
    8296 HW2         19.1000    34.6870    10.9960 HW2           1 RES     
    8297 OW          36.9410    30.9600     9.1610 OW            1 RES     
    8298 HW1         36.1950    31.6230     9.2040 HW1           1 RES     
    8299 HW2         37.8170    31.4430     9.1420 HW2           1 RES     
    8300 OW          24.6040    18.9620     9.4850 OW            1 RES     
    8301 HW1         23.9940    18.7100     8.7340 HW1           1 RES     
    8302 HW2         25.3700    18.3200     9.5240 HW2           1 RES     
    8303 OW          11.4920    12.0260     7.8860 OW            1 RES     
    8304 HW1         10.6940    12.3840     8.3690 HW1           1 RES     
    8305 HW2         11.6160    12.5250     7.0280 HW2           1 RES     
    8306 OW          17.8820    16.2840    16.8590 OW            1 RES     
    8307 HW1         17.0830    16.0190    17.3960 HW1           1 RES     
    8308 HW2         18.2630    15.4780    16.4070 HW2           1 RES     
    8309 OW           1.5840     5.1060     8.3180 OW            1 RES     
    8310 HW1          1.7990     5.9120     7.7680 HW1           1 RES     
    8311 HW2          1.2200     5.3930     9.2040 HW2           1 RES     
    8312 OW          30.2380    -2.8570    16.8410 OW            1 RES     
    8313 HW1         30.7700    -2.9180    15.9970 HW1           1 RES     
    8314 HW2         30.5790    -2.0970    17.3950 HW2           1 RES     
    8315 OW          30.6380     4.9300     6.8450 OW            1 RES     
    8316 HW1         30.8910     4.0910     6.3660 HW1           1 RES     
    8317 HW2         31.4660     5.4300     7.1020 HW2           1 RES     
    8318 OW          45.2570    31.9970    14.0150 OW            1 RES     
    8319 HW1         45.0720    32.9140    13.6640 HW1           1 RES     
    8320 HW2         45.4040    32.0410    15.0030 HW2           1 RES     
    8321 OW          20.9500    11.6610     4.6000 OW            1 RES     
    8322 HW1         20.1970    12.0270     5.1460 HW1           1 RES     
    8323 HW2         20.6720    10.7940     4.1860 HW2           1 RES     
    8324 OW          21.1830     3.2020     6.3690 OW            1 RES     
    8325 HW1         20.3890     3.7740     6.1640 HW1           1 RES     
    8326 HW2         21.9400     3.4530     5.7650 HW2           1 RES     
    8327 OW          21.1490    41.2420     3.7580 OW            1 RES     
    8328 HW1         21.3130    40.2710     3.9270 HW1           1 RES     
    8329 HW2         21.8620    41.6010     3.1550 HW2           1 RES     
    8330 OW          20.0720    37.5380    13.8320 OW            1 RES     
    8331 HW1         19.9160    37.1800    14.7520 HW1           1 RES     
    8332 HW2         20.7380    38.2830    13.8730 HW2           1 RES     
    8333 OW          20.8900    15.9160     8.7860 OW            1 RES     
    8334 HW1         20.0030    16.1990     8.4240 HW1           1 RES     
    8335 HW2         21.1110    16.4630     9.5940 HW2           1 RES     
    8336 OW           3.6680     3.9650     4.3570 OW            1 RES     
    8337 HW1          4.4230     3.6720     3.7720 HW1           1 RES     
    8338 HW2          2.9510     4.3780     3.7950 HW2           1 RES     
    8339 OW           6.5920    28.1580    12.6410 OW            1 RES     
    8340 HW1          6.5410    27.2310    12.2730 HW1           1 RES     
    8341 HW2          5.8750    28.7210    12.2290 HW2           1 RES     
    8342 OW           2.7830    39.7760     6.9460 OW            1 RES     
    8343 HW1          3.5370    39.2950     6.5010 HW1           1 RES     
    8344 HW2          1.9900    39.1690     7.0090 HW2           1 RES     
    8345 OW          25.3520    40.4380    12.5590 OW            1 RES     
    8346 HW1         26.0730    40.8160    13.1380 HW1           1 RES     
    8347 HW2         24.9250    39.6610    13.0220 HW2           1 RES     
    8348 OW          44.8330    10.3840    14.5590 OW            1 RES     
    8349 HW1         44.6260     9.6650    13.8970 HW1           1 RES     
    8350 HW2         43.9920    10.8690    14.8010 HW2           1 RES     
    8351 OW          12.6730     5.9170     7.4560 OW            1 RES     
    8352 HW1         12.6230     4.9300     7.6000 HW1           1 RES     
    8353 HW2         11.7810     6.3280     7.6480 HW2           1 RES     
    8354 OW          41.8060    27.9950     8.5940 OW            1 RES     
    8355 HW1         41.8150    28.9690     8.3710 HW1           1 RES     
    8356 HW2         41.5620    27.8750     9.5560 HW2           1 RES     
    8357 OW          19.6220     6.6020    13.8150 OW            1 RES     
    8358 HW1         20.5950     6.8280    13.8220 HW1           1 RES     
    8359 HW2         19.5070     5.6170    13.9450 HW2           1 RES     
    8360 OW          27.6200    25.5740     2.5590 OW            1 RES     
    8361 HW1         26.9190    25.3290     3.2280 HW1           1 RES     
    8362 HW2         27.4790    26.5170     2.2560 HW2           1 RES     
    8363 OW          11.7880    10.4610     1.7870 OW            1 RES     
    8364 HW1         11.0090     9.8400     1.8570 HW1           1 RES     
    8365 HW2         11.6980    11.1890     2.4670 HW2           1 RES     
    8366 OW          -1.0310    18.4800    12.3100 OW            1 RES     
    8367 HW1         -0.3290    17.7700    12.3570 HW1           1 RES     
    8368 HW2         -0.5960    19.3800    12.3040 HW2           1 RES     
    8369 OW           0.2920     0.8420     5.1310 OW            1 RES     
    8370 HW1          0.2000     1.7170     5.6060 HW1           1 RES     
    8371 HW2         -0.5320     0.6670     4.5920 HW2           1 RES     
    8372 OW           2.5270     4.4660    12.3430 OW            1 RES     
    8373 HW1          3.2570     4.1410    11.7430 HW1           1 RES     
    8374 HW2          1.6660     4.0220    12.0930 HW2           1 RES     
    8375 OW           0.7140     7.9370    10.9910 OW            1 RES     
    8376 HW1          1.0840     7.4430    11.7780 HW1           1 RES     
    8377 HW2          0.8870     7.4120    10.1570 HW2           1 RES     
    8378 OW          22.4460     9.1490     7.5550 OW            1 RES     
    8379 HW1         23.4220     9.1270     7.3410 HW1           1 RES     
    8380 HW2         22.2790     8.6510     8.4060 HW2           1 RES     
    8381 OW           9.9440    -0.2560    10.6920 OW            1 RES     
    8382 HW1         10.5650    -0.1480     9.9160 HW1           1 RES     
    8383 HW2          9.0180    -0.4300    10.3560 HW2           1 RES     
    8384 OW          14.3530    31.7490    10.2590 OW            1 RES     
    8385 HW1         13.8140    30.9380    10.0330 HW1           1 RES     
    8386 HW2         13.8090    32.5700    10.0830 HW2           1 RES     
    8387 OW          43.0000    -4.1590     4.3490 OW            1 RES     
    8388 HW1         42.8260    -4.0850     3.3680 HW1           1 RES     
    8389 HW2         42.8020    -3.2830     4.7900 HW2           1 RES     
    8390 OW          22.7070    -4.3170     9.4700 OW            1 RES     
    8391 HW1         23.0300    -3.3980     9.2450 HW1           1 RES     
    8392 HW2         22.1830    -4.2880    10.3220 HW2           1 RES     
    8393 OW          18.0780    -1.0190    14.5560 OW            1 RES     
    8394 HW1         17.8200    -0.4470    15.3340 HW1           1 RES     
    8395 HW2         19.0520    -1.2390    14.6120 HW2           1 RES     
    8396 OW          36.3420    42.4490    10.9140 OW            1 RES     
    8397 HW1         35.7860    43.2760    10.8420 HW1           1 RES     
    8398 HW2         37.3070    42.7000    10.9860 HW2           1 RES     
    8399 OW          -0.9440    14.5960    15.2220 OW            1 RES     
    8400 HW1         -1.3890    15.3310    14.7120 HW1           1 RES     
    8401 HW2          0.0400    14.7720    15.2710 HW2           1 RES     
    8402 OW          20.0190    38.9740    10.6990 OW            1 RES     
    8403 HW1         19.8230    39.9290    10.9210 HW1           1 RES     
    8404 HW2         19.6390    38.3810    11.4090 HW2           1 RES     
    8405 OW          13.9630     2.7920     4.1450 OW            1 RES     
    8406 HW1         14.7570     2.1990     4.2720 HW1           1 RES     
    8407 HW2         14.2700     3.7170     3.9190 HW2           1 RES     
    8408 OW          42.5290    15.6760    10.5990 OW            1 RES     
    8409 HW1         42.8880    16.5990    10.4660 HW1           1 RES     
    8410 HW2         42.6860    15.3900    11.5450 HW2           1 RES     
    8411 OW          19.9670     4.5370     4.0560 OW            1 RES     
    8412 HW1         19.6440     5.1920     3.3740 HW1           1 RES     
    8413 HW2         20.9350     4.7040     4.2460 HW2           1 RES     
    8414 OW          34.4940    37.1930    14.5620 OW            1 RES     
    8415 HW1         33.8320    37.3320    15.2980 HW1           1 RES     
    8416 HW2         35.3800    36.9430    14.9520 HW2           1 RES     
    8417 OW          -5.5480    30.9170    14.9790 OW            1 RES     
    8418 HW1         -6.1080    31.6540    14.6000 HW1           1 RES     
    8419 HW2         -6.1070    30.0960    15.0900 HW2           1 RES     
    8420 OW          34.7550    -4.0260    13.6000 OW            1 RES     
    8421 HW1         34.6930    -3.3610    14.3430 HW1           1 RES     
    8422 HW2         34.1340    -3.7610    12.8620 HW2           1 RES     
    8423 OW          -0.4020    21.6710    13.5780 OW            1 RES     
    8424 HW1         -1.2230    21.1070    13.6500 HW1           1 RES     
    8425 HW2          0.3650    21.1080    13.2690 HW2           1 RES     
    8426 OW          31.3850    31.8240    12.0080 OW            1 RES     
    8427 HW1         31.3610    32.0650    11.0380 HW1           1 RES     
    8428 HW2         31.6260    32.6310    12.5470 HW2           1 RES     
    8429 OW           3.2020    14.9980    10.6450 OW            1 RES     
    8430 HW1          4.1740    14.9010    10.4340 HW1           1 RES     
    8431 HW2          2.9350    14.3040    11.3140 HW2           1 RES     
    8432 OW          31.9440    35.9660    13.0610 OW            1 RES     
    8433 HW1         32.7990    36.3670    13.3900 HW1           1 RES     
    8434 HW2         31.2410    36.6760    13.0110 HW2           1 RES     
    8435 OW          28.0180    24.6990     6.3920 OW            1 RES     
    8436 HW1         27.4890    23.8740     6.5870 HW1           1 RES     
    8437 HW2         28.9950    24.4820     6.4170 HW2           1 RES     
    8438 OW          14.0590    38.0850    15.7910 OW            1 RES     
    8439 HW1         14.7140    38.6440    15.2840 HW1           1 RES     
    8440 HW2         14.2480    37.1160    15.6260 HW2           1 RES     
    8441 OW           7.5270    32.6850    13.1140 OW            1 RES     
    8442 HW1          8.2720    33.1580    13.5830 HW1           1 RES     
    8443 HW2          6.6890    33.2260    13.1850 HW2           1 RES     
    8444 OW          15.3090    -1.1230     7.9510 OW            1 RES     
    8445 HW1         15.2740    -1.0920     8.9490 HW1           1 RES     
    8446 HW2         14.5610    -1.6910     7.6080 HW2           1 RES     
    8447 OW          43.0090    19.5410    16.7130 OW            1 RES     
    8448 HW1         42.3870    19.9470    17.3810 HW1           1 RES     
    8449 HW2         42.7600    19.8490    15.7940 HW2           1 RES     
    8450 OW          11.1840    27.4290     1.8070 OW            1 RES     
    8451 HW1         10.6950    28.3010     1.7870 HW1           1 RES     
    8452 HW2         12.1700    27.5990     1.8220 HW2           1 RES     
    8453 OW          45.3320     1.2690    11.0110 OW            1 RES     
    8454 HW1         44.3680     1.5340    11.0170 HW1           1 RES     
    8455 HW2         45.4040     0.2720    11.0220 HW2           1 RES     
    8456 OW          27.9560    21.0480    11.9510 OW            1 RES     
    8457 HW1         28.1740    20.2390    11.4070 HW1           1 RES     
    8458 HW2         28.7970    21.5510    12.1530 HW2           1 RES     
    8459 OW          20.0560    -2.0910    16.6980 OW            1 RES     
    8460 HW1         19.9350    -1.1020    16.6220 HW1           1 RES     
    8461 HW2         19.1660    -2.5420    16.6370 HW2           1 RES     
    8462 OW          33.9500    28.5010    10.8870 OW            1 RES     
    8463 HW1         33.4020    27.7290    10.5650 HW1           1 RES     
    8464 HW2         33.6960    28.7210    11.8290 HW2           1 RES     
    8465 OW          13.1220    39.9950     1.8590 OW            1 RES     
    8466 HW1         12.8120    39.0450     1.8330 HW1           1 RES     
    8467 HW2         14.1200    40.0220     1.7860 HW2           1 RES     
    8468 OW          21.9490    37.6510    10.5520 OW            1 RES     
    8469 HW1         22.0360    38.3170    11.2920 HW1           1 RES     
    8470 HW2         21.2260    36.9970    10.7750 HW2           1 RES     
    8471 OW           0.4830    20.9510     7.4530 OW            1 RES     
    8472 HW1          1.3980    20.6070     7.6580 HW1           1 RES     
    8473 HW2          0.5540    21.7890     6.9130 HW2           1 RES     
    8474 OW          37.4050     9.0130    16.9850 OW            1 RES     
    8475 HW1         37.1570     8.0510    16.8720 HW1           1 RES     
    8476 HW2         36.5750     9.5700    17.0200 HW2           1 RES     
    8477 OW          19.1010    11.7590    13.2390 OW            1 RES     
    8478 HW1         18.6070    12.6260    13.1850 HW1           1 RES     
    8479 HW2         19.5870    11.7050    14.1120 HW2           1 RES     
    8480 OW          24.1460    43.2750    13.1860 OW            1 RES     
    8481 HW1         24.6230    42.4400    13.4590 HW1           1 RES     
    8482 HW2         23.8250    43.1840    12.2430 HW2           1 RES     
    8483 OW          37.0040     7.1920     5.8960 OW            1 RES     
    8484 HW1         36.8090     7.4810     6.8320 HW1           1 RES     
    8485 HW2         36.4020     7.6810     5.2640 HW2           1 RES     
    8486 OW          34.8080    24.1230     7.7810 OW            1 RES     
    8487 HW1         34.9590    23.1910     8.1100 HW1           1 RES     
    8488 HW2         33.8260    24.3100     7.7470 HW2           1 RES     
    8489 OW           2.8790    10.2870     8.6790 OW            1 RES     
    8490 HW1          2.0580    10.7870     8.4040 HW1           1 RES     
    8491 HW2          3.0550     9.5500     8.0260 HW2           1 RES     
    8492 OW          41.8530    28.9850    14.5540 OW            1 RES     
    8493 HW1         41.5660    29.8140    15.0320 HW1           1 RES     
    8494 HW2         42.6220    28.5690    15.0400 HW2           1 RES     
    8495 OW          31.5650    42.9550     4.4970 OW            1 RES     
    8496 HW1         32.4980    43.2760     4.6550 HW1           1 RES     
    8497 HW2         30.9720    43.2730     5.2370 HW2           1 RES     
    8498 OW          39.6560     2.2490     9.7200 OW            1 RES     
    8499 HW1         40.6320     2.0330     9.7100 HW1           1 RES     
    8500 HW2         39.1270     1.4010     9.7580 HW2           1 RES     
    8501 OW          28.8010    37.0200     1.9300 OW            1 RES     
    8502 HW1         28.9010    36.0260     1.9520 HW1           1 RES     
    8503 HW2         29.6960    37.4430     1.7860 HW2           1 RES     
    8504 OW          16.8150     4.5600     4.4790 OW            1 RES     
    8505 HW1         17.8100     4.4670     4.4830 HW1           1 RES     
    8506 HW2         16.3950     3.6520     4.4860 HW2           1 RES     
    8507 OW          13.4360    22.9540     7.0770 OW            1 RES     
    8508 HW1         12.7890    22.5410     6.4360 HW1           1 RES     
    8509 HW2         13.0070    23.7400     7.5230 HW2           1 RES     
    8510 OW          11.1900    25.0870     4.0130 OW            1 RES     
    8511 HW1         11.4810    24.1780     3.7170 HW1           1 RES     
    8512 HW2         11.1430    25.1140     5.0120 HW2           1 RES     
    8513 OW          31.5300    38.5790   -66.1300 OW            1 RES     
    8514 HW1         30.5450    38.6770   -66.2650 HW1           1 RES     
    8515 HW2         31.9560    39.4840   -66.1060 HW2           1 RES     
    8516 OW          15.1150    18.8410   -60.4520 OW            1 RES     
    8517 HW1         14.7440    17.9230   -60.3140 HW1           1 RES     
    8518 HW2         14.4400    19.4060   -60.9270 HW2           1 RES     
    8519 OW          44.7320     6.1720   -72.0790 OW            1 RES     
    8520 HW1         44.9470     6.1080   -71.1050 HW1           1 RES     
    8521 HW2         44.8940     5.2870   -72.5160 HW2           1 RES     
    8522 OW           4.2890    -3.2700   -69.2130 OW            1 RES     
    8523 HW1          4.4440    -3.6830   -68.3160 HW1           1 RES     
    8524 HW2          4.3540    -2.2750   -69.1370 HW2           1 RES     
    8525 OW           3.3270    13.8550   -66.7970 OW            1 RES     
    8526 HW1          3.2200    13.7360   -65.8100 HW1           1 RES     
    8527 HW2          4.2950    13.9840   -67.0140 HW2           1 RES     
    8528 OW          -4.0590     2.1710   -62.3930 OW            1 RES     
    8529 HW1         -4.6390     1.7310   -61.7080 HW1           1 RES     
    8530 HW2         -4.4320     3.0710   -62.6180 HW2           1 RES     
    8531 OW           0.8520    43.1310   -67.2540 OW            1 RES     
    8532 HW1          1.0490    42.1510   -67.2720 HW1           1 RES     
    8533 HW2         -0.1320    43.2760   -67.3630 HW2           1 RES     
    8534 OW          40.2620    17.7400   -63.0010 OW            1 RES     
    8535 HW1         40.7810    18.2920   -63.6520 HW1           1 RES     
    8536 HW2         39.3050    18.0320   -63.0030 HW2           1 RES     
    8537 OW          18.1380    26.3350   -73.8160 OW            1 RES     
    8538 HW1         18.9530    25.8480   -74.1270 HW1           1 RES     
    8539 HW2         18.3370    26.8080   -72.9580 HW2           1 RES     
    8540 OW           1.4420    41.3890   -63.5040 OW            1 RES     
    8541 HW1          1.4340    42.3890   -63.5020 HW1           1 RES     
    8542 HW2          2.3870    41.0630   -63.4910 HW2           1 RES     
    8543 OW           3.9200     1.4500   -67.7150 OW            1 RES     
    8544 HW1          3.6760     2.4170   -67.6420 HW1           1 RES     
    8545 HW2          4.8790     1.3690   -67.9870 HW2           1 RES     
    8546 OW          -2.6560    41.0340   -67.6430 OW            1 RES     
    8547 HW1         -2.9050    40.0670   -67.6120 HW1           1 RES     
    8548 HW2         -3.0940    41.5160   -66.8840 HW2           1 RES     
    8549 OW          16.5270    31.0700   -60.7510 OW            1 RES     
    8550 HW1         16.4530    31.5320   -59.8670 HW1           1 RES     
    8551 HW2         16.1120    31.6390   -61.4610 HW2           1 RES     
    8552 OW          -1.8030    30.0830   -68.9670 OW            1 RES     
    8553 HW1         -1.5070    30.7530   -69.6470 HW1           1 RES     
    8554 HW2         -1.0480    29.4620   -68.7580 HW2           1 RES     
    8555 OW          34.1060    13.6990   -67.6550 OW            1 RES     
    8556 HW1         33.4180    13.5740   -66.9400 HW1           1 RES     
    8557 HW2         34.5890    14.5620   -67.5070 HW2           1 RES     
    8558 OW          10.8650    -1.4810   -60.0270 OW            1 RES     
    8559 HW1         11.4050    -0.7070   -60.3560 HW1           1 RES     
    8560 HW2         10.9070    -2.2250   -60.6940 HW2           1 RES     
    8561 OW          13.7120    22.5420   -66.3500 OW            1 RES     
    8562 HW1         14.3460    21.7690   -66.3710 HW1           1 RES     
    8563 HW2         14.1260    23.3250   -66.8150 HW2           1 RES     
    8564 OW          41.0920    22.0510   -63.4850 OW            1 RES     
    8565 HW1         40.2230    21.6720   -63.8010 HW1           1 RES     
    8566 HW2         41.8260    21.3940   -63.6580 HW2           1 RES     
    8567 OW          35.0380    17.5380   -74.1430 OW            1 RES     
    8568 HW1         36.0270    17.6830   -74.1410 HW1           1 RES     
    8569 HW2         34.5710    18.4220   -74.1620 HW2           1 RES     
    8570 OW          -0.8120     1.9300   -66.4810 OW            1 RES     
    8571 HW1         -0.0910     1.4110   -66.0230 HW1           1 RES     
    8572 HW2         -0.4060     2.6920   -66.9860 HW2           1 RES     
    8573 OW           8.5170    20.4700   -60.7810 OW            1 RES     
    8574 HW1          8.3530    21.3340   -61.2570 HW1           1 RES     
    8575 HW2          8.9610    20.6520   -59.9040 HW2           1 RES     
    8576 OW          21.0830     1.9620   -73.5480 OW            1 RES     
    8577 HW1         20.8820     1.0570   -73.9230 HW1           1 RES     
    8578 HW2         20.2280     2.4610   -73.4060 HW2           1 RES     
    8579 OW          20.4210    43.0510   -74.1610 OW            1 RES     
    8580 HW1         19.9840    42.1530   -74.1570 HW1           1 RES     
    8581 HW2         21.3130    42.9900   -73.7130 HW2           1 RES     
    8582 OW          -0.0760    33.0370   -70.6650 OW            1 RES     
    8583 HW1          0.0400    32.8130   -69.6980 HW1           1 RES     
    8584 HW2         -1.0490    33.1410   -70.8700 HW2           1 RES     
    8585 OW          37.6060    -3.4160   -59.2020 OW            1 RES     
    8586 HW1         38.0700    -4.0160   -58.5510 HW1           1 RES     
    8587 HW2         36.8600    -3.9150   -59.6430 HW2           1 RES     
    8588 OW           3.0830    13.1560   -63.3410 OW            1 RES     
    8589 HW1          3.0660    14.1080   -63.6470 HW1           1 RES     
    8590 HW2          3.3460    13.1200   -62.3770 HW2           1 RES     
    8591 OW          16.9220    34.5260   -62.5710 OW            1 RES     
    8592 HW1         16.6190    33.7440   -63.1130 HW1           1 RES     
    8593 HW2         16.6920    35.3740   -63.0510 HW2           1 RES     
    8594 OW          44.8020    14.5800   -70.8870 OW            1 RES     
    8595 HW1         43.8680    14.2480   -70.7590 HW1           1 RES     
    8596 HW2         45.4020    13.8120   -71.1120 HW2           1 RES     
    8597 OW          33.3140    35.8170   -73.1720 OW            1 RES     
    8598 HW1         32.4460    35.3350   -73.2900 HW1           1 RES     
    8599 HW2         34.0700    35.1660   -73.2490 HW2           1 RES     
    8600 OW          33.5020    -3.5010   -62.2200 OW            1 RES     
    8601 HW1         33.4810    -4.2000   -62.9330 HW1           1 RES     
    8602 HW2         34.3350    -2.9550   -62.3120 HW2           1 RES     
    8603 OW          35.6570    39.3080   -65.3400 OW            1 RES     
    8604 HW1         34.6610    39.2980   -65.4240 HW1           1 RES     
    8605 HW2         36.0560    38.6930   -66.0200 HW2           1 RES     
    8606 OW          40.0310    30.7360   -70.5420 OW            1 RES     
    8607 HW1         39.2480    31.1900   -70.1160 HW1           1 RES     
    8608 HW2         40.6420    31.4230   -70.9350 HW2           1 RES     
    8609 OW          44.0250    30.8930   -68.9990 OW            1 RES     
    8610 HW1         44.7640    30.2200   -69.0160 HW1           1 RES     
    8611 HW2         43.1490    30.4230   -68.8920 HW2           1 RES     
    8612 OW          30.9920    42.1430   -59.6550 OW            1 RES     
    8613 HW1         31.2140    41.1750   -59.5420 HW1           1 RES     
    8614 HW2         31.6970    42.5840   -60.2100 HW2           1 RES     
    8615 OW          37.7630     2.5730   -70.0090 OW            1 RES     
    8616 HW1         37.8490     2.9160   -69.0740 HW1           1 RES     
    8617 HW2         36.9550     1.9880   -70.0760 HW2           1 RES     
    8618 OW          28.9040    20.0170   -71.0470 OW            1 RES     
    8619 HW1         27.9130    19.8950   -71.0080 HW1           1 RES     
    8620 HW2         29.3490    19.1220   -71.0840 HW2           1 RES     
    8621 OW          24.1710    33.9490   -66.8630 OW            1 RES     
    8622 HW1         24.6680    33.0810   -66.8610 HW1           1 RES     
    8623 HW2         23.1870    33.7710   -66.8590 HW2           1 RES     
    8624 OW          13.8470     6.2790   -61.5020 OW            1 RES     
    8625 HW1         13.9130     6.4710   -60.5230 HW1           1 RES     
    8626 HW2         14.7000     5.8650   -61.8200 HW2           1 RES     
    8627 OW          35.4280    20.1420   -58.8220 OW            1 RES     
    8628 HW1         34.7280    20.7620   -59.1760 HW1           1 RES     
    8629 HW2         36.3330    20.5450   -58.9620 HW2           1 RES     
    8630 OW          -3.0810    37.7360   -69.3280 OW            1 RES     
    8631 HW1         -2.1910    38.0270   -69.6770 HW1           1 RES     
    8632 HW2         -2.9840    36.8600   -68.8550 HW2           1 RES     
    8633 OW          28.6700     1.7160   -59.1520 OW            1 RES     
    8634 HW1         28.3130     0.9470   -58.6240 HW1           1 RES     
    8635 HW2         29.4660     1.4190   -59.6790 HW2           1 RES     
    8636 OW          12.5900    12.0240   -65.9750 OW            1 RES     
    8637 HW1         12.6980    12.9420   -66.3570 HW1           1 RES     
    8638 HW2         12.5250    12.0830   -64.9790 HW2           1 RES     
    8639 OW          10.9090     1.3140   -58.7890 OW            1 RES     
    8640 HW1         11.8870     1.5010   -58.7030 HW1           1 RES     
    8641 HW2         10.7310     0.3580   -58.5530 HW2           1 RES     
    8642 OW          37.3280    32.8990   -61.2950 OW            1 RES     
    8643 HW1         37.9790    32.5490   -61.9680 HW1           1 RES     
    8644 HW2         36.9260    32.1350   -60.7900 HW2           1 RES     
    8645 OW          45.3600    -1.6060   -63.7190 OW            1 RES     
    8646 HW1         45.4040    -1.8950   -64.6750 HW1           1 RES     
    8647 HW2         44.5340    -1.9780   -63.2950 HW2           1 RES     
    8648 OW          32.8930    -2.2190   -60.5230 OW            1 RES     
    8649 HW1         32.0970    -2.8170   -60.4400 HW1           1 RES     
    8650 HW2         32.5900    -1.2750   -60.6550 HW2           1 RES     
    8651 OW           3.3300    32.1680   -59.2290 OW            1 RES     
    8652 HW1          3.2820    31.2160   -58.9300 HW1           1 RES     
    8653 HW2          3.8300    32.7070   -58.5520 HW2           1 RES     
    8654 OW          -1.7350    38.3250   -62.6310 OW            1 RES     
    8655 HW1         -1.5200    39.3000   -62.5710 HW1           1 RES     
    8656 HW2         -2.7270    38.2000   -62.6210 HW2           1 RES     
    8657 OW          38.7140    34.1640   -70.9960 OW            1 RES     
    8658 HW1         39.1290    33.3170   -70.6660 HW1           1 RES     
    8659 HW2         37.9660    33.9470   -71.6230 HW2           1 RES     
    8660 OW          11.1820     2.1170   -61.7760 OW            1 RES     
    8661 HW1         12.1580     2.2620   -61.9350 HW1           1 RES     
    8662 HW2         11.0450     1.2400   -61.3150 HW2           1 RES     
    8663 OW          26.2070    22.0810   -70.5940 OW            1 RES     
    8664 HW1         25.8060    22.7460   -69.9650 HW1           1 RES     
    8665 HW2         26.4130    21.2360   -70.0990 HW2           1 RES     
    8666 OW          27.9560     6.5820   -61.8520 OW            1 RES     
    8667 HW1         27.1620     6.0110   -62.0540 HW1           1 RES     
    8668 HW2         27.7090     7.2690   -61.1680 HW2           1 RES     
    8669 OW           3.5450    34.5080   -65.5470 OW            1 RES     
    8670 HW1          2.8770    33.8050   -65.7860 HW1           1 RES     
    8671 HW2          3.6230    34.5710   -64.5510 HW2           1 RES     
    8672 OW          35.9230    12.0550   -69.7080 OW            1 RES     
    8673 HW1         36.4460    12.4180   -70.4790 HW1           1 RES     
    8674 HW2         34.9510    12.2420   -69.8470 HW2           1 RES     
    8675 OW          45.2670    -0.6470   -71.3310 OW            1 RES     
    8676 HW1         44.3190    -0.9020   -71.1450 HW1           1 RES     
    8677 HW2         45.4040    -0.5650   -72.3190 HW2           1 RES     
    8678 OW          33.5400    17.5740   -63.2700 OW            1 RES     
    8679 HW1         32.5920    17.2780   -63.1650 HW1           1 RES     
    8680 HW2         33.9970    17.5550   -62.3800 HW2           1 RES     
    8681 OW          13.6400    38.7360   -73.5300 OW            1 RES     
    8682 HW1         14.3790    38.9700   -74.1610 HW1           1 RES     
    8683 HW2         13.1990    39.5740   -73.2070 HW2           1 RES     
    8684 OW          -4.5350    -2.7190   -64.7880 OW            1 RES     
    8685 HW1         -4.3590    -2.4900   -63.8310 HW1           1 RES     
    8686 HW2         -5.3780    -3.2530   -64.8530 HW2           1 RES     
    8687 OW          19.4210     9.9720   -61.6310 OW            1 RES     
    8688 HW1         18.6010    10.1850   -61.1000 HW1           1 RES     
    8689 HW2         19.5790     8.9850   -61.6210 HW2           1 RES     
    8690 OW          32.3230    36.1020   -69.7350 OW            1 RES     
    8691 HW1         31.4210    36.5290   -69.7780 HW1           1 RES     
    8692 HW2         33.0250    36.7830   -69.9450 HW2           1 RES     
    8693 OW          24.9900    19.2390   -63.0520 OW            1 RES     
    8694 HW1         24.1500    19.7300   -62.8220 HW1           1 RES     
    8695 HW2         25.7650    19.6660   -62.5840 HW2           1 RES     
    8696 OW          -0.7940    42.4680   -58.6880 OW            1 RES     
    8697 HW1         -0.3570    41.6470   -59.0540 HW1           1 RES     
    8698 HW2         -1.7690    42.2950   -58.5510 HW2           1 RES     
    8699 OW          -2.2790    28.1530   -70.4510 OW            1 RES     
    8700 HW1         -1.9390    27.6440   -69.6600 HW1           1 RES     
    8701 HW2         -3.0490    28.7280   -70.1720 HW2           1 RES     
    8702 OW          27.9990     8.2790   -72.2530 OW            1 RES     
    8703 HW1         28.0210     7.6000   -71.5200 HW1           1 RES     
    8704 HW2         27.0630     8.6100   -72.3750 HW2           1 RES     
    8705 OW          16.3800    14.3430   -61.3720 OW            1 RES     
    8706 HW1         16.9310    15.0640   -61.7910 HW1           1 RES     
    8707 HW2         15.7600    13.9570   -62.0550 HW2           1 RES     
    8708 OW          17.7570    16.7980   -64.3040 OW            1 RES     
    8709 HW1         17.0220    17.3350   -64.7160 HW1           1 RES     
    8710 HW2         17.5460    16.6240   -63.3420 HW2           1 RES     
    8711 OW           7.6530    18.4800   -67.5920 OW            1 RES     
    8712 HW1          8.3660    17.8390   -67.8750 HW1           1 RES     
    8713 HW2          8.0710    19.2560   -67.1180 HW2           1 RES     
    8714 OW          21.8720    35.4530   -62.7470 OW            1 RES     
    8715 HW1         21.8840    36.2170   -62.1030 HW1           1 RES     
    8716 HW2         21.9310    35.8030   -63.6820 HW2           1 RES     
    8717 OW          -1.6760    40.3170   -71.7880 OW            1 RES     
    8718 HW1         -1.3050    39.4090   -71.5940 HW1           1 RES     
    8719 HW2         -1.7090    40.8520   -70.9440 HW2           1 RES     
    8720 OW          31.7130    20.1740   -62.7450 OW            1 RES     
    8721 HW1         32.5320    19.8880   -63.2400 HW1           1 RES     
    8722 HW2         31.1190    20.6970   -63.3570 HW2           1 RES     
    8723 OW          32.6060    31.2920   -61.7920 OW            1 RES     
    8724 HW1         32.0960    31.8680   -62.4290 HW1           1 RES     
    8725 HW2         33.2840    31.8460   -61.3090 HW2           1 RES     
    8726 OW          14.9940    17.4900   -66.1630 OW            1 RES     
    8727 HW1         14.4660    16.9530   -65.5060 HW1           1 RES     
    8728 HW2         15.2580    18.3600   -65.7480 HW2           1 RES     
    8729 OW          38.0710    20.0090   -74.1570 OW            1 RES     
    8730 HW1         37.5390    19.5990   -73.4170 HW1           1 RES     
    8731 HW2         38.9680    20.2860   -73.8100 HW2           1 RES     
    8732 OW          14.4560    39.6270   -61.1990 OW            1 RES     
    8733 HW1         13.8660    40.4160   -61.0340 HW1           1 RES     
    8734 HW2         15.3360    39.9370   -61.5600 HW2           1 RES     
    8735 OW          10.8210    -2.5240   -65.1740 OW            1 RES     
    8736 HW1         10.3080    -1.6670   -65.1440 HW1           1 RES     
    8737 HW2         10.1890    -3.2950   -65.0950 HW2           1 RES     
    8738 OW          24.0500     7.4850   -66.4340 OW            1 RES     
    8739 HW1         23.0690     7.6750   -66.3990 HW1           1 RES     
    8740 HW2         24.4140     7.4370   -65.5030 HW2           1 RES     
    8741 OW           3.4480    29.4820   -68.3280 OW            1 RES     
    8742 HW1          3.5150    30.4630   -68.1490 HW1           1 RES     
    8743 HW2          4.1320    28.9970   -67.7840 HW2           1 RES     
    8744 OW          10.6870    35.4550   -72.6250 OW            1 RES     
    8745 HW1          9.9530    34.8390   -72.9080 HW1           1 RES     
    8746 HW2         11.1910    35.0470   -71.8640 HW2           1 RES     
    8747 OW          37.8440    29.9580   -63.6270 OW            1 RES     
    8748 HW1         38.8400    29.8900   -63.5880 HW1           1 RES     
    8749 HW2         37.5750    30.9210   -63.6290 HW2           1 RES     
    8750 OW          10.1590     8.0280   -69.1930 OW            1 RES     
    8751 HW1          9.2800     8.4100   -69.4770 HW1           1 RES     
    8752 HW2         10.8370     8.7600   -69.1290 HW2           1 RES     
    8753 OW          14.6700    31.2880   -58.6010 OW            1 RES     
    8754 HW1         15.1080    30.3910   -58.5510 HW1           1 RES     
    8755 HW2         13.6790    31.1720   -58.6750 HW2           1 RES     
    8756 OW          34.1330     9.3510   -61.3590 OW            1 RES     
    8757 HW1         34.7640     9.8160   -60.7380 HW1           1 RES     
    8758 HW2         34.3420     8.3730   -61.3770 HW2           1 RES     
    8759 OW          13.6400    -0.5600   -60.7660 OW            1 RES     
    8760 HW1         13.3600    -1.3390   -61.3260 HW1           1 RES     
    8761 HW2         13.2780     0.2830   -61.1640 HW2           1 RES     
    8762 OW          38.0720     7.4910   -70.3540 OW            1 RES     
    8763 HW1         37.5810     7.4260   -71.2220 HW1           1 RES     
    8764 HW2         37.8110     8.3350   -69.8850 HW2           1 RES     
    8765 OW          -5.3620    18.1090   -71.8970 OW            1 RES     
    8766 HW1         -4.4660    18.5460   -71.8280 HW1           1 RES     
    8767 HW2         -5.2490    17.1150   -71.8950 HW2           1 RES     
    8768 OW          31.9430     3.0290   -68.4820 OW            1 RES     
    8769 HW1         32.8790     3.3050   -68.2650 HW1           1 RES     
    8770 HW2         31.6870     3.3920   -69.3780 HW2           1 RES     
    8771 OW          -0.6560     6.8620   -64.4530 OW            1 RES     
    8772 HW1         -0.9320     7.6990   -64.9250 HW1           1 RES     
    8773 HW2         -1.4660     6.3140   -64.2450 HW2           1 RES     
    8774 OW          40.4070    11.0410   -66.9840 OW            1 RES     
    8775 HW1         41.2340    10.5430   -67.2430 HW1           1 RES     
    8776 HW2         39.6110    10.6120   -67.4120 HW2           1 RES     
    8777 OW          37.9620     5.3000   -70.1870 OW            1 RES     
    8778 HW1         38.5790     4.5640   -70.4630 HW1           1 RES     
    8779 HW2         37.1760     4.9130   -69.7050 HW2           1 RES     
    8780 OW           2.3670     4.1630   -60.1780 OW            1 RES     
    8781 HW1          2.0540     4.9330   -59.6230 HW1           1 RES     
    8782 HW2          3.3450     4.2610   -60.3630 HW2           1 RES     
    8783 OW          44.5100    26.7320   -66.7020 OW            1 RES     
    8784 HW1         43.7930    26.0370   -66.7110 HW1           1 RES     
    8785 HW2         45.4030    26.2930   -66.8060 HW2           1 RES     
    8786 OW          16.5820    18.4630   -70.0070 OW            1 RES     
    8787 HW1         15.9200    17.7140   -69.9830 HW1           1 RES     
    8788 HW2         16.2400    19.2280   -69.4610 HW2           1 RES     
    8789 OW          38.1650    36.0580   -62.1920 OW            1 RES     
    8790 HW1         39.0100    35.8730   -62.6930 HW1           1 RES     
    8791 HW2         38.3440    36.0180   -61.2090 HW2           1 RES     
    8792 OW          -1.3600     0.0720   -69.6780 OW            1 RES     
    8793 HW1         -1.8980     0.4540   -70.4300 HW1           1 RES     
    8794 HW2         -0.6450    -0.5220   -70.0470 HW2           1 RES     
    8795 OW          19.1900    29.4720   -60.2420 OW            1 RES     
    8796 HW1         18.8620    28.5490   -60.4410 HW1           1 RES     
    8797 HW2         18.5090    30.1400   -60.5410 HW2           1 RES     
    8798 OW          -2.1780    34.0810   -60.7230 OW            1 RES     
    8799 HW1         -2.8230    34.4530   -60.0560 HW1           1 RES     
    8800 HW2         -1.3670    34.6650   -60.7660 HW2           1 RES     
    8801 OW          35.6080     1.4130   -65.0850 OW            1 RES     
    8802 HW1         34.7210     1.8630   -65.1870 HW1           1 RES     
    8803 HW2         35.8450     0.9470   -65.9380 HW2           1 RES     
    8804 OW          21.3310    24.5250   -65.6270 OW            1 RES     
    8805 HW1         22.2760    24.2600   -65.4400 HW1           1 RES     
    8806 HW2         20.9160    24.8930   -64.7950 HW2           1 RES     
    8807 OW          41.6930    29.1720   -64.6940 OW            1 RES     
    8808 HW1         40.7330    29.3140   -64.9330 HW1           1 RES     
    8809 HW2         42.0150    29.9370   -64.1350 HW2           1 RES     
    8810 OW          25.3180    10.2630   -65.1550 OW            1 RES     
    8811 HW1         25.9490    10.2910   -65.9290 HW1           1 RES     
    8812 HW2         25.3840     9.3730   -64.7020 HW2           1 RES     
    8813 OW          17.3170    12.7600   -69.0520 OW            1 RES     
    8814 HW1         17.1880    13.5460   -69.6550 HW1           1 RES     
    8815 HW2         16.5240    12.1550   -69.1170 HW2           1 RES     
    8816 OW          29.9080     5.9270   -69.1100 OW            1 RES     
    8817 HW1         29.6930     6.1530   -68.1600 HW1           1 RES     
    8818 HW2         30.7990     6.3110   -69.3510 HW2           1 RES     
    8819 OW          14.9290    14.5040   -68.5080 OW            1 RES     
    8820 HW1         13.9350    14.4700   -68.4130 HW1           1 RES     
    8821 HW2         15.2100    15.4320   -68.7510 HW2           1 RES     
    8822 OW          30.4880    41.6030   -72.4930 OW            1 RES     
    8823 HW1         31.4300    41.9320   -72.4360 HW1           1 RES     
    8824 HW2         29.8630    42.3830   -72.5180 HW2           1 RES     
    8825 OW          44.2780    39.7160   -73.7980 OW            1 RES     
    8826 HW1         44.2480    39.7360   -72.7990 HW1           1 RES     
    8827 HW2         43.3520    39.8130   -74.1620 HW2           1 RES     
    8828 OW          38.4900    31.4380   -67.1180 OW            1 RES     
    8829 HW1         38.9760    30.6470   -66.7490 HW1           1 RES     
    8830 HW2         37.5770    31.1600   -67.4170 HW2           1 RES     
    8831 OW          37.7190     7.5780   -64.5730 OW            1 RES     
    8832 HW1         38.2650     6.7410   -64.5560 HW1           1 RES     
    8833 HW2         38.3140     8.3620   -64.7510 HW2           1 RES     
    8834 OW          28.0620     0.5260   -65.3510 OW            1 RES     
    8835 HW1         28.3590     1.0050   -66.1760 HW1           1 RES     
    8836 HW2         28.5990    -0.3110   -65.2380 HW2           1 RES     
    8837 OW          -1.5390    24.8620   -73.1540 OW            1 RES     
    8838 HW1         -2.2530    24.2530   -73.4990 HW1           1 RES     
    8839 HW2         -1.8870    25.8000   -73.1210 HW2           1 RES     
    8840 OW           5.3700    23.2550   -68.9350 OW            1 RES     
    8841 HW1          6.0800    22.5780   -68.7430 HW1           1 RES     
    8842 HW2          5.7940    24.1420   -69.1170 HW2           1 RES     
    8843 OW           6.7220     2.1920   -59.2070 OW            1 RES     
    8844 HW1          7.4570     2.3710   -58.5540 HW1           1 RES     
    8845 HW2          6.8170     1.2660   -59.5720 HW2           1 RES     
    8846 OW           4.5930    36.2020   -59.5070 OW            1 RES     
    8847 HW1          4.2560    35.4020   -60.0020 HW1           1 RES     
    8848 HW2          4.8430    36.9180   -60.1600 HW2           1 RES     
    8849 OW          -2.5040    10.3370   -61.8540 OW            1 RES     
    8850 HW1         -1.5210    10.5170   -61.8240 HW1           1 RES     
    8851 HW2         -2.7190     9.5580   -61.2640 HW2           1 RES     
    8852 OW           8.3910    37.0160   -59.5810 OW            1 RES     
    8853 HW1          9.2840    36.5700   -59.6190 HW1           1 RES     
    8854 HW2          8.5110    38.0080   -59.6330 HW2           1 RES     
    8855 OW          21.0120    24.2210   -69.4260 OW            1 RES     
    8856 HW1         21.2580    24.3500   -68.4660 HW1           1 RES     
    8857 HW2         21.2570    25.0390   -69.9460 HW2           1 RES     
    8858 OW          13.4740    30.0690   -64.8220 OW            1 RES     
    8859 HW1         12.6230    30.3890   -65.2360 HW1           1 RES     
    8860 HW2         13.4910    29.0690   -64.8230 HW2           1 RES     
    8861 OW          37.7010    19.6500   -63.4690 OW            1 RES     
    8862 HW1         38.5850    20.0890   -63.3140 HW1           1 RES     
    8863 HW2         36.9870    20.1550   -62.9850 HW2           1 RES     
    8864 OW          18.1590    18.7760   -62.5970 OW            1 RES     
    8865 HW1         17.1670    18.6520   -62.5790 HW1           1 RES     
    8866 HW2         18.3730    19.7530   -62.6320 HW2           1 RES     
    8867 OW          19.0760    35.8610   -72.1980 OW            1 RES     
    8868 HW1         19.6950    36.3760   -71.6060 HW1           1 RES     
    8869 HW2         19.2560    34.8820   -72.0980 HW2           1 RES     
    8870 OW           1.2880    10.7010   -63.2250 OW            1 RES     
    8871 HW1          1.5560    11.6230   -62.9460 HW1           1 RES     
    8872 HW2          2.1010    10.1850   -63.4960 HW2           1 RES     
    8873 OW          -4.9340    20.4700   -67.7940 OW            1 RES     
    8874 HW1         -5.4950    20.0100   -67.1070 HW1           1 RES     
    8875 HW2         -5.4870    21.1490   -68.2770 HW2           1 RES     
    8876 OW          31.2720    28.4130   -69.4030 OW            1 RES     
    8877 HW1         30.3700    28.8290   -69.2930 HW1           1 RES     
    8878 HW2         31.9610    29.1310   -69.5070 HW2           1 RES     
    8879 OW          23.7360     4.2970   -59.5500 OW            1 RES     
    8880 HW1         23.7590     5.2820   -59.7190 HW1           1 RES     
    8881 HW2         24.5010     4.0430   -58.9570 HW2           1 RES     
    8882 OW          37.6250    21.8610   -73.0570 OW            1 RES     
    8883 HW1         37.0470    21.9940   -72.2520 HW1           1 RES     
    8884 HW2         38.1110    22.7110   -73.2640 HW2           1 RES     
    8885 OW           4.9410    40.3080   -66.8650 OW            1 RES     
    8886 HW1          3.9680    40.5300   -66.9070 HW1           1 RES     
    8887 HW2          5.4750    41.1530   -66.8260 HW2           1 RES     
    8888 OW          38.4760    28.3600   -71.6200 OW            1 RES     
    8889 HW1         39.3640    28.6520   -71.9720 HW1           1 RES     
    8890 HW2         38.5020    28.3420   -70.6200 HW2           1 RES     
    8891 OW          29.5980    39.3390   -72.3370 OW            1 RES     
    8892 HW1         28.6250    39.4770   -72.1550 HW1           1 RES     
    8893 HW2         30.1130    39.4310   -71.4840 HW2           1 RES     
    8894 OW           1.3940    33.1900   -74.0460 OW            1 RES     
    8895 HW1          0.9100    32.3320   -73.8800 HW1           1 RES     
    8896 HW2          0.7320    33.9310   -74.1620 HW2           1 RES     
    8897 OW          16.9290     0.2190   -73.0230 OW            1 RES     
    8898 HW1         15.9710     0.4790   -72.9040 HW1           1 RES     
    8899 HW2         17.0390    -0.7530   -72.8140 HW2           1 RES     
    8900 OW          30.3640    32.1250   -70.9360 OW            1 RES     
    8901 HW1         29.4120    32.3890   -70.7830 HW1           1 RES     
    8902 HW2         30.4630    31.1390   -70.8000 HW2           1 RES     
    8903 OW          26.4890     0.1880   -67.0490 OW            1 RES     
    8904 HW1         26.1350    -0.7470   -67.0790 HW1           1 RES     
    8905 HW2         25.9950     0.7090   -66.3520 HW2           1 RES     
    8906 OW          28.6310    19.0290   -66.5230 OW            1 RES     
    8907 HW1         27.8930    18.4160   -66.8010 HW1           1 RES     
    8908 HW2         28.3330    19.9780   -66.6230 HW2           1 RES     
    8909 OW          30.7130    26.9400   -66.9730 OW            1 RES     
    8910 HW1         29.8660    26.4710   -66.7210 HW1           1 RES     
    8911 HW2         31.3360    26.2920   -67.4110 HW2           1 RES     
    8912 OW           9.6570    11.9090   -66.5770 OW            1 RES     
    8913 HW1          8.8870    12.3460   -66.1130 HW1           1 RES     
    8914 HW2         10.3490    12.5970   -66.7970 HW2           1 RES     
    8915 OW          30.6660    35.9700   -66.8710 OW            1 RES     
    8916 HW1         29.9110    36.5620   -67.1490 HW1           1 RES     
    8917 HW2         31.1790    36.4070   -66.1320 HW2           1 RES     
    8918 OW          39.2070    31.7960   -73.3010 OW            1 RES     
    8919 HW1         40.1520    32.0140   -73.0600 HW1           1 RES     
    8920 HW2         38.6730    32.6400   -73.3540 HW2           1 RES     
    8921 OW          14.3260    31.8180   -63.7520 OW            1 RES     
    8922 HW1         14.8780    32.3990   -63.1540 HW1           1 RES     
    8923 HW2         14.6080    31.9530   -64.7020 HW2           1 RES     
    8924 OW          44.7150     2.5540   -62.4380 OW            1 RES     
    8925 HW1         44.3690     3.3320   -62.9610 HW1           1 RES     
    8926 HW2         45.4040     2.8700   -61.7860 HW2           1 RES     
    8927 OW          13.7980     8.4210   -66.6060 OW            1 RES     
    8928 HW1         14.1010     8.3430   -67.5560 HW1           1 RES     
    8929 HW2         13.2960     7.5950   -66.3480 HW2           1 RES     
    8930 OW           5.5600    11.2660   -65.0080 OW            1 RES     
    8931 HW1          5.2540    12.1540   -65.3500 HW1           1 RES     
    8932 HW2          6.5590    11.2200   -65.0430 HW2           1 RES     
    8933 OW           4.3660    22.0980   -64.8530 OW            1 RES     
    8934 HW1          4.2150    21.4780   -65.6210 HW1           1 RES     
    8935 HW2          3.4900    22.3130   -64.4200 HW2           1 RES     
    8936 OW          29.7930    -3.7320   -61.4120 OW            1 RES     
    8937 HW1         30.5820    -4.3160   -61.2270 HW1           1 RES     
    8938 HW2         30.0350    -2.7770   -61.2390 HW2           1 RES     
    8939 OW          15.9970    19.6980   -71.9820 OW            1 RES     
    8940 HW1         16.9730    19.9050   -71.9190 HW1           1 RES     
    8941 HW2         15.8710    18.7100   -72.0770 HW2           1 RES     
    8942 OW          27.8750    30.5200   -68.8700 OW            1 RES     
    8943 HW1         28.3660    30.7860   -69.6990 HW1           1 RES     
    8944 HW2         28.4370    29.8840   -68.3390 HW2           1 RES     
    8945 OW           0.1510     7.6570   -70.2020 OW            1 RES     
    8946 HW1         -0.5680     7.2430   -69.6440 HW1           1 RES     
    8947 HW2          0.9220     7.9120   -69.6180 HW2           1 RES     
    8948 OW          -0.7710    11.0200   -64.6970 OW            1 RES     
    8949 HW1         -1.6560    10.6920   -65.0280 HW1           1 RES     
    8950 HW2         -0.8320    11.9970   -64.4930 HW2           1 RES     
    8951 OW           3.9630    17.6910   -70.5840 OW            1 RES     
    8952 HW1          4.3240    18.0770   -71.4330 HW1           1 RES     
    8953 HW2          2.9640    17.7410   -70.5930 HW2           1 RES     
    8954 OW          23.7910    40.3580   -69.6400 OW            1 RES     
    8955 HW1         24.6530    39.8650   -69.7560 HW1           1 RES     
    8956 HW2         23.0680    39.8910   -70.1490 HW2           1 RES     
    8957 OW          -5.3750    20.2120   -72.9410 OW            1 RES     
    8958 HW1         -6.1080    20.7630   -72.5430 HW1           1 RES     
    8959 HW2         -5.7620    19.5690   -73.6020 HW2           1 RES     
    8960 OW           8.0320    27.0890   -67.0510 OW            1 RES     
    8961 HW1          8.3360    27.8410   -66.4680 HW1           1 RES     
    8962 HW2          8.8250    26.6580   -67.4820 HW2           1 RES     
    8963 OW          -5.1210    37.5850   -65.4660 OW            1 RES     
    8964 HW1         -4.3010    38.1530   -65.5290 HW1           1 RES     
    8965 HW2         -5.0590    36.8350   -66.1250 HW2           1 RES     
    8966 OW          36.3450    27.8010   -70.7310 OW            1 RES     
    8967 HW1         36.5990    27.6240   -69.7810 HW1           1 RES     
    8968 HW2         35.6310    28.5010   -70.7600 HW2           1 RES     
    8969 OW           7.9360    15.9780   -59.2140 OW            1 RES     
    8970 HW1          7.5810    16.6610   -58.5760 HW1           1 RES     
    8971 HW2          8.8590    16.2370   -59.5000 HW2           1 RES     
    8972 OW          22.8180    17.3160   -65.7260 OW            1 RES     
    8973 HW1         22.2520    17.5230   -64.9280 HW1           1 RES     
    8974 HW2         22.2930    16.7610   -66.3720 HW2           1 RES     
    8975 OW          15.8950    39.5420   -58.5810 OW            1 RES     
    8976 HW1         16.5620    38.7990   -58.5510 HW1           1 RES     
    8977 HW2         14.9730    39.1600   -58.6510 HW2           1 RES     
    8978 OW          19.0160    32.3190   -74.1620 OW            1 RES     
    8979 HW1         19.9310    32.2060   -73.7750 HW1           1 RES     
    8980 HW2         18.7640    33.2870   -74.1450 HW2           1 RES     
    8981 OW          27.2770    33.2380   -70.4570 OW            1 RES     
    8982 HW1         27.7730    33.8220   -71.0990 HW1           1 RES     
    8983 HW2         26.3770    33.0180   -70.8330 HW2           1 RES     
    8984 OW           2.3110     1.3820   -60.4700 OW            1 RES     
    8985 HW1          2.6190     0.5380   -60.0320 HW1           1 RES     
    8986 HW2          3.0350     2.0700   -60.4150 HW2           1 RES     
    8987 OW          28.6810    24.2080   -72.4120 OW            1 RES     
    8988 HW1         27.7130    24.1790   -72.6610 HW1           1 RES     
    8989 HW2         28.9290    23.3640   -71.9370 HW2           1 RES     
    8990 OW          27.9530     4.9470   -68.7760 OW            1 RES     
    8991 HW1         27.4050     5.7600   -68.9660 HW1           1 RES     
    8992 HW2         27.3700     4.1350   -68.8090 HW2           1 RES     
    8993 OW          14.4040    34.0980   -67.1040 OW            1 RES     
    8994 HW1         13.9240    33.7740   -67.9190 HW1           1 RES     
    8995 HW2         14.9490    33.3530   -66.7190 HW2           1 RES     
    8996 OW          11.2070    14.2640   -65.3410 OW            1 RES     
    8997 HW1         11.8110    14.9660   -65.7170 HW1           1 RES     
    8998 HW2         11.4590    14.0810   -64.3910 HW2           1 RES     
    8999 OW          20.8690    11.7430   -60.0520 OW            1 RES     
    9000 HW1         19.8830    11.9090   -60.0730 HW1           1 RES     
    9001 HW2         21.2550    11.9090   -60.9590 HW2           1 RES     
    9002 OW          13.9680    37.1100   -68.3370 OW            1 RES     
    9003 HW1         14.5300    36.3230   -68.0830 HW1           1 RES     
    9004 HW2         14.5500    37.9170   -68.4400 HW2           1 RES     
    9005 OW          41.9820    19.0960   -70.6560 OW            1 RES     
    9006 HW1         42.2230    19.8940   -70.1050 HW1           1 RES     
    9007 HW2         41.0010    19.1110   -70.8540 HW2           1 RES     
    9008 OW           2.8290    18.2660   -67.0840 OW            1 RES     
    9009 HW1          3.7510    18.2190   -67.4670 HW1           1 RES     
    9010 HW2          2.7800    17.6980   -66.2620 HW2           1 RES     
    9011 OW          43.6870    22.9700   -60.5340 OW            1 RES     
    9012 HW1         42.7810    22.7700   -60.9060 HW1           1 RES     
    9013 HW2         43.6170    23.1170   -59.5470 HW2           1 RES     
    9014 OW          15.3950    -0.5310   -62.1690 OW            1 RES     
    9015 HW1         16.0000     0.1350   -62.6040 HW1           1 RES     
    9016 HW2         14.8960    -1.0380   -62.8720 HW2           1 RES     
    9017 OW          32.4390    37.7320   -72.5340 OW            1 RES     
    9018 HW1         33.1940    37.8060   -71.8850 HW1           1 RES     
    9019 HW2         31.6450    37.3290   -72.0790 HW2           1 RES     
    9020 OW          13.5170    35.0300   -70.0510 OW            1 RES     
    9021 HW1         13.3590    34.0440   -70.0280 HW1           1 RES     
    9022 HW2         14.4980    35.2130   -69.9820 HW2           1 RES     
    9023 OW          15.4100    -2.9470   -59.7350 OW            1 RES     
    9024 HW1         15.7930    -2.1270   -59.3110 HW1           1 RES     
    9025 HW2         16.1450    -3.4840   -60.1480 HW2           1 RES     
    9026 OW           0.0160    21.5930   -61.0620 OW            1 RES     
    9027 HW1          0.6760    20.8430   -61.0430 HW1           1 RES     
    9028 HW2         -0.9110    21.2210   -61.1120 HW2           1 RES     
    9029 OW           9.3010    -1.4500   -67.5140 OW            1 RES     
    9030 HW1          9.3180    -2.3390   -67.0590 HW1           1 RES     
    9031 HW2         10.1880    -1.2770   -67.9420 HW2           1 RES     
    9032 OW           0.2540    14.3610   -71.2270 OW            1 RES     
    9033 HW1         -0.3230    14.8880   -70.6040 HW1           1 RES     
    9034 HW2          0.5800    13.5360   -70.7640 HW2           1 RES     
    9035 OW          11.0350    30.2250   -67.5880 OW            1 RES     
    9036 HW1         11.6900    29.5920   -67.1750 HW1           1 RES     
    9037 HW2         10.7370    30.8900   -66.9030 HW2           1 RES     
    9038 OW          24.1490    25.6330   -66.2220 OW            1 RES     
    9039 HW1         24.9820    26.0420   -65.8510 HW1           1 RES     
    9040 HW2         24.3560    24.7240   -66.5840 HW2           1 RES     
    9041 OW          28.4140    18.1970   -61.1100 OW            1 RES     
    9042 HW1         27.4760    18.5310   -61.2010 HW1           1 RES     
    9043 HW2         28.5370    17.7910   -60.2050 HW2           1 RES     
    9044 OW           5.6980    16.3010   -69.0340 OW            1 RES     
    9045 HW1          6.6820    16.1420   -68.9600 HW1           1 RES     
    9046 HW2          5.4830    17.2210   -68.7040 HW2           1 RES     
    9047 OW          44.6640    -2.1530   -67.8380 OW            1 RES     
    9048 HW1         44.3170    -2.0980   -66.9020 HW1           1 RES     
    9049 HW2         44.2980    -1.3920   -68.3750 HW2           1 RES     
    9050 OW          37.8650     4.5510   -62.1350 OW            1 RES     
    9051 HW1         38.4840     5.3000   -62.3690 HW1           1 RES     
    9052 HW2         37.6810     4.0020   -62.9500 HW2           1 RES     
    9053 OW          40.6440    13.7350   -60.6000 OW            1 RES     
    9054 HW1         40.7400    12.7430   -60.5350 HW1           1 RES     
    9055 HW2         41.5070    14.1720   -60.3440 HW2           1 RES     
    9056 OW          -5.1800    41.1450   -59.3110 OW            1 RES     
    9057 HW1         -5.4710    41.7410   -58.5640 HW1           1 RES     
    9058 HW2         -5.9610    40.6120   -59.6370 HW2           1 RES     
    9059 OW           7.3780    13.4530   -61.5500 OW            1 RES     
    9060 HW1          8.1130    12.7890   -61.6810 HW1           1 RES     
    9061 HW2          7.1910    13.9200   -62.4140 HW2           1 RES     
    9062 OW          30.2310    28.6110   -71.9660 OW            1 RES     
    9063 HW1         30.9460    29.0990   -71.4670 HW1           1 RES     
    9064 HW2         29.3420    28.8060   -71.5510 HW2           1 RES     
    9065 OW           8.9210    19.3820   -72.6230 OW            1 RES     
    9066 HW1          8.8310    18.3980   -72.4730 HW1           1 RES     
    9067 HW2          9.8900    19.6260   -72.6640 HW2           1 RES     
    9068 OW          23.8290     3.6280   -67.6740 OW            1 RES     
    9069 HW1         23.3600     4.5050   -67.7660 HW1           1 RES     
    9070 HW2         23.3720     3.0760   -66.9760 HW2           1 RES     
    9071 OW          35.8300     0.5890   -74.1620 OW            1 RES     
    9072 HW1         35.7130     1.5820   -74.1620 HW1           1 RES     
    9073 HW2         36.8060     0.3690   -74.1620 HW2           1 RES     
    9074 OW           5.5880    26.2530   -64.0720 OW            1 RES     
    9075 HW1          6.3380    26.5640   -64.6550 HW1           1 RES     
    9076 HW2          5.6530    26.7000   -63.1800 HW2           1 RES     
    9077 OW          31.4750    14.7140   -69.4970 OW            1 RES     
    9078 HW1         31.1040    14.0180   -68.8840 HW1           1 RES     
    9079 HW2         32.4130    14.9320   -69.2260 HW2           1 RES     
    9080 OW          25.8500    26.3130   -59.3650 OW            1 RES     
    9081 HW1         24.9000    26.5810   -59.2080 HW1           1 RES     
    9082 HW2         25.9500    25.3300   -59.2060 HW2           1 RES     
    9083 OW          45.2730    12.6120   -73.4520 OW            1 RES     
    9084 HW1         45.2030    12.1670   -72.5600 HW1           1 RES     
    9085 HW2         45.4020    11.9180   -74.1620 HW2           1 RES     
    9086 OW          20.5910    19.1660   -73.3930 OW            1 RES     
    9087 HW1         19.9930    18.6150   -72.8120 HW1           1 RES     
    9088 HW2         21.1660    19.7500   -72.8210 HW2           1 RES     
    9089 OW           1.8890    23.4650   -60.0690 OW            1 RES     
    9090 HW1          1.9520    24.2250   -59.4220 HW1           1 RES     
    9091 HW2          2.7920    23.2860   -60.4620 HW2           1 RES     
    9092 OW           9.5640    38.2520   -65.8940 OW            1 RES     
    9093 HW1          9.5820    39.2510   -65.9180 HW1           1 RES     
    9094 HW2         10.5010    37.9010   -65.8820 HW2           1 RES     
    9095 OW          35.2040    14.9500   -71.7570 OW            1 RES     
    9096 HW1         35.2510    13.9610   -71.8960 HW1           1 RES     
    9097 HW2         36.1050    15.2920   -71.4890 HW2           1 RES     
    9098 OW          22.6600     8.6150   -69.7170 OW            1 RES     
    9099 HW1         23.4820     9.0290   -69.3280 HW1           1 RES     
    9100 HW2         22.6840     7.6250   -69.5730 HW2           1 RES     
    9101 OW          18.3140    25.8340   -70.7000 OW            1 RES     
    9102 HW1         19.2970    25.6610   -70.7500 HW1           1 RES     
    9103 HW2         18.1440    26.8180   -70.7530 HW2           1 RES     
    9104 OW          -4.8270    18.4240   -63.8190 OW            1 RES     
    9105 HW1         -4.6740    19.3340   -63.4350 HW1           1 RES     
    9106 HW2         -4.0850    17.8140   -63.5400 HW2           1 RES     
    9107 OW          22.8340    38.0830   -66.5540 OW            1 RES     
    9108 HW1         21.9170    37.9840   -66.1700 HW1           1 RES     
    9109 HW2         23.3330    37.2220   -66.4530 HW2           1 RES     
    9110 OW          36.2780    13.6620   -66.3580 OW            1 RES     
    9111 HW1         36.7360    13.5710   -67.2420 HW1           1 RES     
    9112 HW2         36.5800    12.9290   -65.7480 HW2           1 RES     
    9113 OW          26.6820     3.6280   -61.4300 OW            1 RES     
    9114 HW1         25.8580     4.1460   -61.6580 HW1           1 RES     
    9115 HW2         27.1730     4.0900   -60.6910 HW2           1 RES     
    9116 OW          -4.9770    42.1200   -68.6130 OW            1 RES     
    9117 HW1         -4.9820    41.3310   -68.0000 HW1           1 RES     
    9118 HW2         -5.7180    42.7430   -68.3610 HW2           1 RES     
    9119 OW          31.3680    21.3600   -60.2910 OW            1 RES     
    9120 HW1         32.3370    21.5360   -60.4600 HW1           1 RES     
    9121 HW2         30.9040    22.2200   -60.0780 HW2           1 RES     
    9122 OW          23.5080    -3.8630   -63.6030 OW            1 RES     
    9123 HW1         22.6430    -3.5070   -63.2510 HW1           1 RES     
    9124 HW2         23.3510    -4.3170   -64.4800 HW2           1 RES     
    9125 OW          22.6820     9.6460   -61.8220 OW            1 RES     
    9126 HW1         23.4020     9.6300   -62.5150 HW1           1 RES     
    9127 HW2         21.7890     9.6980   -62.2690 HW2           1 RES     
    9128 OW          16.5840     9.3740   -58.5530 OW            1 RES     
    9129 HW1         17.4830     8.9370   -58.5520 HW1           1 RES     
    9130 HW2         16.6960    10.3670   -58.5530 HW2           1 RES     
    9131 OW          14.6610    39.0340   -66.5480 OW            1 RES     
    9132 HW1         15.6030    39.3220   -66.7170 HW1           1 RES     
    9133 HW2         14.0530    39.8260   -66.6130 HW2           1 RES     
    9134 OW           2.2780    -2.3210   -66.6790 OW            1 RES     
    9135 HW1          2.8280    -3.1270   -66.8970 HW1           1 RES     
    9136 HW2          1.3070    -2.5540   -66.7400 HW2           1 RES     
    9137 OW          14.8450    35.0630   -64.5430 OW            1 RES     
    9138 HW1         13.8670    35.1800   -64.7140 HW1           1 RES     
    9139 HW2         15.0900    34.0990   -64.6550 HW2           1 RES     
    9140 OW          37.4910    25.9680   -65.7410 OW            1 RES     
    9141 HW1         37.3300    25.1170   -65.2410 HW1           1 RES     
    9142 HW2         36.8200    26.6530   -65.4580 HW2           1 RES     
    9143 OW           7.7160    31.9900   -66.1030 OW            1 RES     
    9144 HW1          7.3140    32.8960   -65.9700 HW1           1 RES     
    9145 HW2          7.3400    31.5770   -66.9330 HW2           1 RES     
    9146 OW          39.2190    33.7130   -68.5030 OW            1 RES     
    9147 HW1         39.2140    34.6900   -68.7110 HW1           1 RES     
    9148 HW2         38.4570    33.4980   -67.8920 HW2           1 RES     
    9149 OW          -1.4740    -3.3530   -70.1690 OW            1 RES     
    9150 HW1         -2.1550    -2.7410   -70.5700 HW1           1 RES     
    9151 HW2         -0.8070    -2.8170   -69.6510 HW2           1 RES     
    9152 OW           0.7360    37.7480   -63.9640 OW            1 RES     
    9153 HW1          1.0240    37.6740   -64.9180 HW1           1 RES     
    9154 HW2          1.1230    38.5780   -63.5610 HW2           1 RES     
    9155 OW          18.6000    40.6450   -62.0710 OW            1 RES     
    9156 HW1         18.9560    39.7280   -61.8930 HW1           1 RES     
    9157 HW2         17.6730    40.7200   -61.7050 HW2           1 RES     
    9158 OW           7.6070    29.6410   -62.2280 OW            1 RES     
    9159 HW1          7.3750    30.6130   -62.2290 HW1           1 RES     
    9160 HW2          8.4680    29.5020   -62.7180 HW2           1 RES     
    9161 OW          25.9720    39.1190   -73.4090 OW            1 RES     
    9162 HW1         26.9620    39.1010   -73.5460 HW1           1 RES     
    9163 HW2         25.5220    38.6380   -74.1620 HW2           1 RES     
    9164 OW           8.2280    27.8040   -70.2860 OW            1 RES     
    9165 HW1          8.3360    27.0380   -69.6530 HW1           1 RES     
    9166 HW2          9.0280    28.4020   -70.2260 HW2           1 RES     
    9167 OW          22.4470    27.7910   -66.2610 OW            1 RES     
    9168 HW1         22.0550    26.8840   -66.4120 HW1           1 RES     
    9169 HW2         23.4390    27.7150   -66.1670 HW2           1 RES     
    9170 OW           4.6070    28.5250   -61.2690 OW            1 RES     
    9171 HW1          5.4600    28.8740   -61.6550 HW1           1 RES     
    9172 HW2          3.8310    28.9370   -61.7480 HW2           1 RES     
    9173 OW          22.5580     4.8590   -73.4370 OW            1 RES     
    9174 HW1         23.2700     4.3160   -73.8810 HW1           1 RES     
    9175 HW2         22.9790     5.5020   -72.7970 HW2           1 RES     
    9176 OW          30.7310    21.0800   -72.5190 OW            1 RES     
    9177 HW1         31.6650    20.7230   -72.4980 HW1           1 RES     
    9178 HW2         30.7580    22.0790   -72.5670 HW2           1 RES     
    9179 OW          31.8850    24.8650   -70.8290 OW            1 RES     
    9180 HW1         31.4960    25.7780   -70.7120 HW1           1 RES     
    9181 HW2         31.1600    24.1800   -70.7490 HW2           1 RES     
    9182 OW          29.5850    11.9900   -70.5060 OW            1 RES     
    9183 HW1         29.5370    12.9100   -70.1180 HW1           1 RES     
    9184 HW2         30.5420    11.7050   -70.5740 HW2           1 RES     
    9185 OW           8.3480     7.9250   -61.7220 OW            1 RES     
    9186 HW1          9.1450     8.2660   -61.2250 HW1           1 RES     
    9187 HW2          7.7710     7.3930   -61.1020 HW2           1 RES     
    9188 OW           8.0400    38.5780   -67.4470 OW            1 RES     
    9189 HW1          7.4890    39.4000   -67.5910 HW1           1 RES     
    9190 HW2          7.4910    37.8850   -66.9790 HW2           1 RES     
    9191 OW          13.0930    42.2950   -67.6690 OW            1 RES     
    9192 HW1         13.2600    43.2760   -67.7630 HW1           1 RES     
    9193 HW2         12.3910    42.0120   -68.3220 HW2           1 RES     
    9194 OW          17.3610     0.0110   -69.9040 OW            1 RES     
    9195 HW1         18.0040     0.5110   -69.3250 HW1           1 RES     
    9196 HW2         17.7150    -0.0290   -70.8390 HW2           1 RES     
    9197 OW          27.7040     7.3170   -64.0780 OW            1 RES     
    9198 HW1         27.1690     8.1400   -64.2670 HW1           1 RES     
    9199 HW2         28.6760     7.5510   -64.0420 HW2           1 RES     
    9200 OW          16.0510    33.6310   -69.8670 OW            1 RES     
    9201 HW1         16.8830    33.2460   -70.2660 HW1           1 RES     
    9202 HW2         15.3040    32.9710   -69.9510 HW2           1 RES     
    9203 OW           9.0160     0.8420   -65.8530 OW            1 RES     
    9204 HW1          8.9160     0.6850   -66.8350 HW1           1 RES     
    9205 HW2          9.9270     0.5510   -65.5600 HW2           1 RES     
    9206 OW          21.1110    16.7860   -58.9540 OW            1 RES     
    9207 HW1         22.0000    16.5680   -58.5510 HW1           1 RES     
    9208 HW2         20.8770    17.7370   -58.7510 HW2           1 RES     
    9209 OW          25.3600    29.7790   -68.6920 OW            1 RES     
    9210 HW1         25.6320    30.7270   -68.5300 HW1           1 RES     
    9211 HW2         26.1540    29.1800   -68.5850 HW2           1 RES     
    9212 OW          -5.7760    34.0640   -60.2360 OW            1 RES     
    9213 HW1         -5.0100    34.4390   -59.7150 HW1           1 RES     
    9214 HW2         -5.4540    33.3070   -60.8040 HW2           1 RES     
    9215 OW          33.3820    10.2530   -71.6430 OW            1 RES     
    9216 HW1         34.1770    10.5750   -71.1300 HW1           1 RES     
    9217 HW2         33.5710    10.3110   -72.6240 HW2           1 RES     
    9218 OW          16.9980    25.8540   -68.7870 OW            1 RES     
    9219 HW1         16.4250    25.8730   -67.9680 HW1           1 RES     
    9220 HW2         17.8890    26.2580   -68.5810 HW2           1 RES     
    9221 OW          28.3420    40.3280   -66.5230 OW            1 RES     
    9222 HW1         28.7840    39.7570   -67.2140 HW1           1 RES     
    9223 HW2         28.8510    40.2660   -65.6640 HW2           1 RES     
    9224 OW           1.5660    -3.3740   -58.5780 OW            1 RES     
    9225 HW1          1.8950    -4.3170   -58.6070 HW1           1 RES     
    9226 HW2          2.3470    -2.7490   -58.5510 HW2           1 RES     
    9227 OW          41.9300    -0.0660   -64.9830 OW            1 RES     
    9228 HW1         42.1580    -1.0370   -65.0460 HW1           1 RES     
    9229 HW2         41.2280     0.1570   -65.6610 HW2           1 RES     
    9230 OW          34.3290     0.4020   -68.7770 OW            1 RES     
    9231 HW1         34.4300     1.2470   -69.3010 HW1           1 RES     
    9232 HW2         33.7580    -0.2410   -69.2880 HW2           1 RES     
    9233 OW          27.4760    34.2280   -60.0200 OW            1 RES     
    9234 HW1         26.5500    34.0820   -59.6730 HW1           1 RES     
    9235 HW2         27.5850    33.7510   -60.8920 HW2           1 RES     
    9236 OW          33.4480    15.1280   -63.9780 OW            1 RES     
    9237 HW1         34.1430    14.8190   -64.6270 HW1           1 RES     
    9238 HW2         32.5410    14.8750   -64.3150 HW2           1 RES     
    9239 OW          -2.0290    18.4390   -64.0120 OW            1 RES     
    9240 HW1         -1.7260    18.5370   -63.0650 HW1           1 RES     
    9241 HW2         -2.4500    19.2930   -64.3180 HW2           1 RES     
    9242 OW          30.2370    30.9840   -67.6220 OW            1 RES     
    9243 HW1         31.1090    31.2190   -67.1940 HW1           1 RES     
    9244 HW2         30.3580    30.9210   -68.6130 HW2           1 RES     
    9245 OW          41.3130    28.9500   -70.6150 OW            1 RES     
    9246 HW1         40.9940    28.6470   -69.7180 HW1           1 RES     
    9247 HW2         42.3100    29.0250   -70.6070 HW2           1 RES     
    9248 OW          -0.8830     9.1910   -67.7570 OW            1 RES     
    9249 HW1         -0.8380     8.4580   -67.0790 HW1           1 RES     
    9250 HW2         -1.4670     8.9080   -68.5180 HW2           1 RES     
    9251 OW          37.5010    -2.5810   -61.3010 OW            1 RES     
    9252 HW1         36.8800    -3.2340   -61.7350 HW1           1 RES     
    9253 HW2         37.5690    -1.7590   -61.8680 HW2           1 RES     
    9254 OW           8.8840    31.1330   -74.0140 OW            1 RES     
    9255 HW1          8.4480    32.0200   -74.1610 HW1           1 RES     
    9256 HW2          8.3060    30.5710   -73.4210 HW2           1 RES     
    9257 OW          38.6820    41.0460   -60.4540 OW            1 RES     
    9258 HW1         38.2090    41.6750   -59.8370 HW1           1 RES     
    9259 HW2         39.0880    41.5610   -61.2090 HW2           1 RES     
    9260 OW           8.6060     3.0080   -64.9290 OW            1 RES     
    9261 HW1          9.4660     2.6790   -64.5420 HW1           1 RES     
    9262 HW2          8.7160     3.1550   -65.9120 HW2           1 RES     
    9263 OW          23.6020    17.6250   -59.8250 OW            1 RES     
    9264 HW1         24.2800    18.0840   -59.2510 HW1           1 RES     
    9265 HW2         23.8710    16.6720   -59.9620 HW2           1 RES     
    9266 OW          37.7450    -3.2370   -64.2120 OW            1 RES     
    9267 HW1         37.2260    -3.6800   -64.9410 HW1           1 RES     
    9268 HW2         37.5700    -2.2520   -64.2280 HW2           1 RES     
    9269 OW          39.3950    -2.1160   -59.5110 OW            1 RES     
    9270 HW1         39.5450    -1.3320   -60.1120 HW1           1 RES     
    9271 HW2         39.9320    -2.0030   -58.6740 HW2           1 RES     
    9272 OW           6.3680     3.9750   -60.8980 OW            1 RES     
    9273 HW1          6.3740     3.0990   -61.3800 HW1           1 RES     
    9274 HW2          5.4590     4.3870   -60.9650 HW2           1 RES     
    9275 OW          30.7650    15.6620   -63.2210 OW            1 RES     
    9276 HW1         30.0840    15.7250   -62.4920 HW1           1 RES     
    9277 HW2         30.3100    15.4390   -64.0840 HW2           1 RES     
    9278 OW          -0.4490    18.3380   -68.6180 OW            1 RES     
    9279 HW1         -0.3750    18.9740   -67.8500 HW1           1 RES     
    9280 HW2         -1.3560    17.9160   -68.6160 HW2           1 RES     
    9281 OW          -5.0580    30.2710   -69.2920 OW            1 RES     
    9282 HW1         -6.0250    30.5180   -69.2470 HW1           1 RES     
    9283 HW2         -4.9640    29.2760   -69.2390 HW2           1 RES     
    9284 OW          16.8220    37.9080   -60.6480 OW            1 RES     
    9285 HW1         15.8270    37.9960   -60.6490 HW1           1 RES     
    9286 HW2         17.2380    38.8170   -60.6890 HW2           1 RES     
    9287 OW          -1.5880    17.1510   -70.7680 OW            1 RES     
    9288 HW1         -1.8240    16.7030   -71.6290 HW1           1 RES     
    9289 HW2         -0.5940    17.1490   -70.6520 HW2           1 RES     
    9290 OW          40.9880     4.3650   -66.7350 OW            1 RES     
    9291 HW1         40.1780     4.6230   -67.2600 HW1           1 RES     
    9292 HW2         41.6600     5.1050   -66.7730 HW2           1 RES     
    9293 OW          37.7180    12.9590   -73.4600 OW            1 RES     
    9294 HW1         37.9470    12.1080   -73.9310 HW1           1 RES     
    9295 HW2         37.9540    12.8780   -72.4910 HW2           1 RES     
    9296 OW          43.4930    27.7130   -72.8520 OW            1 RES     
    9297 HW1         43.5700    28.7040   -72.9500 HW1           1 RES     
    9298 HW2         42.7070    27.4940   -72.2740 HW2           1 RES     
    9299 OW           6.3390     8.1810   -70.4920 OW            1 RES     
    9300 HW1          7.3000     8.0720   -70.7430 HW1           1 RES     
    9301 HW2          5.8390     7.3430   -70.7150 HW2           1 RES     
    9302 OW           0.7740    18.8770   -70.7590 OW            1 RES     
    9303 HW1          1.4860    19.5760   -70.6980 HW1           1 RES     
    9304 HW2         -0.1250    19.3090   -70.6820 HW2           1 RES     
    9305 OW          31.9650    33.1730   -66.6580 OW            1 RES     
    9306 HW1         32.9370    32.9920   -66.8040 HW1           1 RES     
    9307 HW2         31.7230    34.0510   -67.0730 HW2           1 RES     
    9308 OW          16.7650    29.5100   -71.9650 OW            1 RES     
    9309 HW1         17.2710    28.6490   -72.0040 HW1           1 RES     
    9310 HW2         17.3670    30.2630   -72.2350 HW2           1 RES     
    9311 OW          32.2020    -0.5950   -71.7390 OW            1 RES     
    9312 HW1         32.8880     0.1310   -71.7800 HW1           1 RES     
    9313 HW2         32.6590    -1.4850   -71.7130 HW2           1 RES     
    9314 OW          40.2790    40.0220   -59.2930 OW            1 RES     
    9315 HW1         40.4860    39.3870   -60.0360 HW1           1 RES     
    9316 HW2         40.9380    39.8950   -58.5510 HW2           1 RES     
    9317 OW          21.4900    39.1620   -71.9670 OW            1 RES     
    9318 HW1         22.3640    38.6800   -71.9230 HW1           1 RES     
    9319 HW2         20.7440    38.4970   -72.0070 HW2           1 RES     
    9320 OW          20.5770     1.7470   -70.7330 OW            1 RES     
    9321 HW1         20.6630     2.7420   -70.7850 HW1           1 RES     
    9322 HW2         21.1500     1.3250   -71.4350 HW2           1 RES     
    9323 OW          42.2940    14.9690   -69.4020 OW            1 RES     
    9324 HW1         41.4170    15.3480   -69.6990 HW1           1 RES     
    9325 HW2         42.5920    15.4320   -68.5680 HW2           1 RES     
    9326 OW          -2.1210    15.6630   -69.2080 OW            1 RES     
    9327 HW1         -1.5150    15.7310   -68.4160 HW1           1 RES     
    9328 HW2         -2.4250    14.7170   -69.3150 HW2           1 RES     
    9329 OW          -6.1070    22.0700   -65.6020 OW            1 RES     
    9330 HW1         -5.7340    22.1650   -64.6800 HW1           1 RES     
    9331 HW2         -5.3580    22.0370   -66.2640 HW2           1 RES     
    9332 OW          17.9820     6.0470   -58.8690 OW            1 RES     
    9333 HW1         18.1360     5.1120   -58.5510 HW1           1 RES     
    9334 HW2         18.8450     6.4360   -59.1940 HW2           1 RES     
    9335 OW          24.3320    -0.7960   -64.1260 OW            1 RES     
    9336 HW1         24.9070    -0.3230   -63.4600 HW1           1 RES     
    9337 HW2         24.8950    -1.1090   -64.8920 HW2           1 RES     
    9338 OW          23.2660    12.0200   -63.6030 OW            1 RES     
    9339 HW1         22.5840    11.6410   -62.9790 HW1           1 RES     
    9340 HW2         23.9760    11.3370   -63.7780 HW2           1 RES     
    9341 OW          14.1680     2.1000   -66.5740 OW            1 RES     
    9342 HW1         13.9670     1.4500   -65.8420 HW1           1 RES     
    9343 HW2         14.8990     2.7170   -66.2820 HW2           1 RES     
    9344 OW          -2.2090    37.5070   -73.7470 OW            1 RES     
    9345 HW1         -3.1340    37.5140   -74.1250 HW1           1 RES     
    9346 HW2         -1.9510    38.4360   -73.4770 HW2           1 RES     
    9347 OW          -1.1570    33.1990   -73.3040 OW            1 RES     
    9348 HW1         -2.1180    33.3660   -73.5200 HW1           1 RES     
    9349 HW2         -1.0590    32.2900   -72.8980 HW2           1 RES     
    9350 OW          12.7010    18.8810   -65.2700 OW            1 RES     
    9351 HW1         12.0770    18.4950   -64.5910 HW1           1 RES     
    9352 HW2         13.2290    19.6220   -64.8540 HW2           1 RES     
    9353 OW          16.6810    11.4280   -71.6190 OW            1 RES     
    9354 HW1         16.8460    10.6200   -71.0550 HW1           1 RES     
    9355 HW2         15.9210    11.9530   -71.2360 HW2           1 RES     
    9356 OW           5.3340    27.3370   -70.7560 OW            1 RES     
    9357 HW1          4.6700    27.7960   -70.1660 HW1           1 RES     
    9358 HW2          6.0500    26.9230   -70.1930 HW2           1 RES     
    9359 OW          24.0010    16.8640   -63.2290 OW            1 RES     
    9360 HW1         23.7970    15.8860   -63.2410 HW1           1 RES     
    9361 HW2         23.2200    17.3640   -62.8540 HW2           1 RES     
    9362 OW          14.3790    -1.0920   -65.0150 OW            1 RES     
    9363 HW1         14.3040    -2.0820   -65.1280 HW1           1 RES     
    9364 HW2         15.2900    -0.7910   -65.2980 HW2           1 RES     
    9365 OW          21.0840     3.4730   -61.1670 OW            1 RES     
    9366 HW1         21.8250     3.0910   -60.6160 HW1           1 RES     
    9367 HW2         20.5230     2.7300   -61.5340 HW2           1 RES     
    9368 OW          45.0450    16.2600   -66.9190 OW            1 RES     
    9369 HW1         44.4580    16.4370   -67.7090 HW1           1 RES     
    9370 HW2         45.1300    15.2730   -66.7810 HW2           1 RES     
    9371 OW          40.8700    34.0100   -66.6890 OW            1 RES     
    9372 HW1         39.9300    34.1830   -66.3950 HW1           1 RES     
    9373 HW2         40.9180    33.1250   -67.1520 HW2           1 RES     
    9374 OW          18.5910    12.1060   -67.3760 OW            1 RES     
    9375 HW1         19.4150    12.1310   -66.8100 HW1           1 RES     
    9376 HW2         18.0340    11.3150   -67.1210 HW2           1 RES     
    9377 OW          30.3120    32.4250   -64.9440 OW            1 RES     
    9378 HW1         29.5220    32.1950   -64.3760 HW1           1 RES     
    9379 HW2         31.0040    31.7070   -64.8590 HW2           1 RES     
    9380 OW          39.2010    20.5270   -68.7990 OW            1 RES     
    9381 HW1         40.1060    20.4360   -68.3850 HW1           1 RES     
    9382 HW2         38.6240    21.1000   -68.2160 HW2           1 RES     
    9383 OW          -2.3170    25.6750   -64.3230 OW            1 RES     
    9384 HW1         -3.0880    25.2570   -63.8440 HW1           1 RES     
    9385 HW2         -2.2130    26.6240   -64.0240 HW2           1 RES     
    9386 OW          18.3700    18.8370   -67.4880 OW            1 RES     
    9387 HW1         18.7770    19.4960   -66.8560 HW1           1 RES     
    9388 HW2         18.0660    18.0320   -66.9800 HW2           1 RES     
    9389 OW           6.1040    41.4050   -60.6720 OW            1 RES     
    9390 HW1          6.2420    41.9970   -59.8780 HW1           1 RES     
    9391 HW2          5.1660    41.0580   -60.6700 HW2           1 RES     
    9392 OW          29.7390    -2.5020   -73.8010 OW            1 RES     
    9393 HW1         29.3110    -1.6280   -73.5710 HW1           1 RES     
    9394 HW2         30.7260    -2.3740   -73.9000 HW2           1 RES     
    9395 OW          15.8020     2.4600   -63.4840 OW            1 RES     
    9396 HW1         16.6620     1.9700   -63.6220 HW1           1 RES     
    9397 HW2         15.6990     3.1590   -64.1920 HW2           1 RES     
    9398 OW          35.7280    26.0720   -68.2890 OW            1 RES     
    9399 HW1         36.6110    25.6850   -68.5540 HW1           1 RES     
    9400 HW2         35.0600    25.3360   -68.1780 HW2           1 RES     
    9401 OW          26.1110    40.5820   -65.2860 OW            1 RES     
    9402 HW1         26.8670    40.4850   -64.6390 HW1           1 RES     
    9403 HW2         25.4730    39.8200   -65.1720 HW2           1 RES     
    9404 OW          25.0000     1.8550   -61.9800 OW            1 RES     
    9405 HW1         24.6140     0.9910   -61.6610 HW1           1 RES     
    9406 HW2         25.0080     1.8680   -62.9810 HW2           1 RES     
    9407 OW          -6.1050    25.6110   -67.7830 OW            1 RES     
    9408 HW1         -5.2260    26.0870   -67.7760 HW1           1 RES     
    9409 HW2         -5.9490    24.6230   -67.8060 HW2           1 RES     
    9410 OW          -3.4520    24.0690   -67.5620 OW            1 RES     
    9411 HW1         -3.4120    23.0760   -67.4540 HW1           1 RES     
    9412 HW2         -2.9960    24.3310   -68.4130 HW2           1 RES     
    9413 OW          17.6790    23.2200   -70.0800 OW            1 RES     
    9414 HW1         18.5670    23.6800   -70.0880 HW1           1 RES     
    9415 HW2         16.9550    23.8950   -69.9390 HW2           1 RES     
    9416 OW          23.3050    21.4710   -74.1610 OW            1 RES     
    9417 HW1         23.9160    21.4350   -73.3710 HW1           1 RES     
    9418 HW2         22.6610    20.7080   -74.1210 HW2           1 RES     
    9419 OW          17.9310     0.1780   -61.2400 OW            1 RES     
    9420 HW1         17.7340    -0.7610   -61.5200 HW1           1 RES     
    9421 HW2         18.7840     0.4820   -61.6630 HW2           1 RES     
    9422 OW          32.1860    -1.3650   -68.2360 OW            1 RES     
    9423 HW1         31.9460    -0.9650   -67.3530 HW1           1 RES     
    9424 HW2         31.5640    -1.0210   -68.9390 HW2           1 RES     
    9425 OW          25.1220    17.6720   -68.3930 OW            1 RES     
    9426 HW1         24.2860    17.7250   -67.8470 HW1           1 RES     
    9427 HW2         25.1030    18.3780   -69.1010 HW2           1 RES     
    9428 OW           9.3380    27.4580   -60.1020 OW            1 RES     
    9429 HW1          9.1130    28.3110   -60.5730 HW1           1 RES     
    9430 HW2          8.8780    27.4360   -59.2140 HW2           1 RES     
    9431 OW          24.1900    26.3400   -68.8250 OW            1 RES     
    9432 HW1         23.2170    26.1680   -68.6740 HW1           1 RES     
    9433 HW2         24.3000    27.0440   -69.5270 HW2           1 RES     
    9434 OW          24.0860    42.5610   -71.4460 OW            1 RES     
    9435 HW1         25.0860    42.5600   -71.4470 HW1           1 RES     
    9436 HW2         23.7510    41.6190   -71.4430 HW2           1 RES     
    9437 OW          37.5150    40.1500   -70.3480 OW            1 RES     
    9438 HW1         38.4270    39.7460   -70.3950 HW1           1 RES     
    9439 HW2         37.1570    40.0590   -69.4180 HW2           1 RES     
    9440 OW          37.6870    10.1040   -72.4870 OW            1 RES     
    9441 HW1         38.2800     9.4010   -72.0950 HW1           1 RES     
    9442 HW2         37.5110     9.8940   -73.4490 HW2           1 RES     
    9443 OW          35.1250    24.8050   -65.9190 OW            1 RES     
    9444 HW1         35.5580    23.9120   -66.0410 HW1           1 RES     
    9445 HW2         34.1310    24.7020   -65.9580 HW2           1 RES     
    9446 OW          33.1380    33.8380   -64.5350 OW            1 RES     
    9447 HW1         34.1310    33.8020   -64.4270 HW1           1 RES     
    9448 HW2         32.7460    32.9410   -64.3290 HW2           1 RES     
    9449 OW          11.4410    28.1830   -64.1920 OW            1 RES     
    9450 HW1         10.8350    27.4410   -63.9090 HW1           1 RES     
    9451 HW2         11.5020    28.2020   -65.1900 HW2           1 RES     
    9452 OW          23.9100    22.5310   -68.2930 OW            1 RES     
    9453 HW1         23.9020    21.5990   -68.6520 HW1           1 RES     
    9454 HW2         24.8250    22.7510   -67.9540 HW2           1 RES     
    9455 OW           2.9180    26.2110   -65.3240 OW            1 RES     
    9456 HW1          3.8290    25.8310   -65.4770 HW1           1 RES     
    9457 HW2          2.2620    25.4650   -65.2030 HW2           1 RES     
    9458 OW          13.7570    26.0770   -67.6150 OW            1 RES     
    9459 HW1         13.3410    25.3680   -67.0460 HW1           1 RES     
    9460 HW2         13.0770    26.4300   -68.2580 HW2           1 RES     
    9461 OW          31.8180    28.7820   -60.7950 OW            1 RES     
    9462 HW1         31.1610    28.1630   -60.3660 HW1           1 RES     
    9463 HW2         32.0310    28.4570   -61.7170 HW2           1 RES     
    9464 OW          -0.4130    31.5500   -61.4470 OW            1 RES     
    9465 HW1         -1.2850    31.1220   -61.2110 HW1           1 RES     
    9466 HW2         -0.0670    31.1550   -62.2980 HW2           1 RES     
    9467 OW          18.6800    26.4460   -63.5300 OW            1 RES     
    9468 HW1         19.6540    26.4040   -63.7520 HW1           1 RES     
    9469 HW2         18.4860    27.2950   -63.0380 HW2           1 RES     
    9470 OW          15.8100    25.3250   -65.0390 OW            1 RES     
    9471 HW1         16.0390    26.2940   -64.9520 HW1           1 RES     
    9472 HW2         14.8610    25.2320   -65.3410 HW2           1 RES     
    9473 OW          14.1400    41.4640   -64.0270 OW            1 RES     
    9474 HW1         14.3990    41.2440   -64.9670 HW1           1 RES     
    9475 HW2         13.1470    41.4030   -63.9310 HW2           1 RES     
    9476 OW          -0.1520    25.8210   -62.2490 OW            1 RES     
    9477 HW1         -1.0080    26.2400   -61.9480 HW1           1 RES     
    9478 HW2         -0.2970    25.3590   -63.1240 HW2           1 RES     
    9479 OW          44.1000    20.3360   -59.0600 OW            1 RES     
    9480 HW1         43.9520    21.1840   -58.5510 HW1           1 RES     
    9481 HW2         43.8700    20.4800   -60.0220 HW2           1 RES     
    9482 OW           2.0260    40.3640   -70.3690 OW            1 RES     
    9483 HW1          1.1440    40.0100   -70.6790 HW1           1 RES     
    9484 HW2          2.7270    39.6590   -70.4820 HW2           1 RES     
    9485 OW           7.3340    38.5290   -64.6290 OW            1 RES     
    9486 HW1          7.9980    37.8180   -64.4040 HW1           1 RES     
    9487 HW2          6.6230    38.5580   -63.9260 HW2           1 RES     
    9488 OW          35.6340    30.3280   -60.8330 OW            1 RES     
    9489 HW1         35.0380    29.8970   -60.1570 HW1           1 RES     
    9490 HW2         36.1980    29.6300   -61.2750 HW2           1 RES     
    9491 OW          21.2390    22.3890   -63.1650 OW            1 RES     
    9492 HW1         20.4740    21.7640   -63.3150 HW1           1 RES     
    9493 HW2         20.9030    23.3310   -63.1540 HW2           1 RES     
    9494 OW          31.5510    12.4860   -65.1280 OW            1 RES     
    9495 HW1         31.4140    12.8220   -66.0590 HW1           1 RES     
    9496 HW2         31.6940    11.4960   -65.1480 HW2           1 RES     
    9497 OW          30.3210    12.5560   -73.2620 OW            1 RES     
    9498 HW1         29.6400    13.2800   -73.3690 HW1           1 RES     
    9499 HW2         30.6590    12.2790   -74.1620 HW2           1 RES     
    9500 OW          28.9230    43.2090   -61.7940 OW            1 RES     
    9501 HW1         28.3700    42.4690   -62.1760 HW1           1 RES     
    9502 HW2         29.7050    42.8230   -61.3040 HW2           1 RES     
    9503 OW          22.3800    12.5010   -66.5250 OW            1 RES     
    9504 HW1         23.0780    12.2590   -65.8520 HW1           1 RES     
    9505 HW2         22.0990    13.4510   -66.3870 HW2           1 RES     
    9506 OW           4.2590    19.3850   -64.4980 OW            1 RES     
    9507 HW1          4.1130    19.2630   -65.4800 HW1           1 RES     
    9508 HW2          3.5320    19.9600   -64.1220 HW2           1 RES     
    9509 OW           7.4200    20.0270   -74.0970 OW            1 RES     
    9510 HW1          6.9650    20.6950   -73.5090 HW1           1 RES     
    9511 HW2          6.8580    19.2020   -74.1620 HW2           1 RES     
    9512 OW          27.8160    36.6320   -73.2220 OW            1 RES     
    9513 HW1         28.2900    36.9100   -74.0570 HW1           1 RES     
    9514 HW2         26.8590    36.9200   -73.2700 HW2           1 RES     
    9515 OW          38.9750    36.9050   -59.1200 OW            1 RES     
    9516 HW1         39.4910    36.2330   -58.5890 HW1           1 RES     
    9517 HW2         38.7880    37.7070   -58.5510 HW2           1 RES     
    9518 OW          29.2000    35.3380   -59.1170 OW            1 RES     
    9519 HW1         29.9620    34.7360   -58.8820 HW1           1 RES     
    9520 HW2         29.2390    36.1620   -58.5520 HW2           1 RES     
    9521 OW          -5.4960     6.2110   -67.6090 OW            1 RES     
    9522 HW1         -4.7760     6.2090   -66.9160 HW1           1 RES     
    9523 HW2         -5.5960     5.2920   -67.9900 HW2           1 RES     
    9524 OW          30.5100     7.3900   -62.5320 OW            1 RES     
    9525 HW1         30.1490     7.1400   -61.6340 HW1           1 RES     
    9526 HW2         31.4520     7.0660   -62.6160 HW2           1 RES     
    9527 OW          -6.1070     7.8380   -63.4840 OW            1 RES     
    9528 HW1         -6.0160     8.4960   -64.2310 HW1           1 RES     
    9529 HW2         -5.5800     8.1540   -62.6950 HW2           1 RES     
    9530 OW          16.1670    36.6620   -58.9290 OW            1 RES     
    9531 HW1         15.6540    35.8920   -58.5530 HW1           1 RES     
    9532 HW2         17.0940    36.6610   -58.5540 HW2           1 RES     
    9533 OW          39.7830    27.6370   -73.9090 OW            1 RES     
    9534 HW1         40.7470    27.4560   -74.0990 HW1           1 RES     
    9535 HW2         39.5640    28.5790   -74.1620 HW2           1 RES     
    9536 OW          -5.1340     3.3630   -66.0450 OW            1 RES     
    9537 HW1         -4.5950     4.2040   -66.0130 HW1           1 RES     
    9538 HW2         -6.1080     3.5890   -66.0190 HW2           1 RES     
    9539 OW          24.9400    12.3880   -71.5410 OW            1 RES     
    9540 HW1         24.1750    11.8400   -71.2070 HW1           1 RES     
    9541 HW2         25.8000    11.9170   -71.3440 HW2           1 RES     
    9542 OW          32.4590    12.9160   -70.5950 OW            1 RES     
    9543 HW1         33.1790    12.7590   -71.2710 HW1           1 RES     
    9544 HW2         32.8030    12.6920   -69.6830 HW2           1 RES     
    9545 OW           2.1080     0.7020   -65.3110 OW            1 RES     
    9546 HW1          2.5030     1.2040   -64.5430 HW1           1 RES     
    9547 HW2          2.8220     0.1640   -65.7600 HW2           1 RES     
    9548 OW          26.5880    16.5770   -65.7830 OW            1 RES     
    9549 HW1         25.6230    16.7900   -65.6370 HW1           1 RES     
    9550 HW2         26.6710    15.8660   -66.4820 HW2           1 RES     
    9551 OW           5.7570    29.5250   -66.0600 OW            1 RES     
    9552 HW1          5.3860    30.4300   -65.8560 HW1           1 RES     
    9553 HW2          6.7460    29.5920   -66.1930 HW2           1 RES     
    9554 OW          -5.3380    34.9410   -70.2560 OW            1 RES     
    9555 HW1         -6.1070    35.3660   -70.7310 HW1           1 RES     
    9556 HW2         -5.3780    35.1700   -69.2830 HW2           1 RES     
    9557 OW           7.1340    11.0020   -74.1010 OW            1 RES     
    9558 HW1          7.9730    11.5420   -74.1610 HW1           1 RES     
    9559 HW2          6.3490    11.6150   -74.0030 HW2           1 RES     
    9560 OW          -2.4770     9.5730   -72.1230 OW            1 RES     
    9561 HW1         -2.5860     9.5970   -73.1160 HW1           1 RES     
    9562 HW2         -2.9380    10.3630   -71.7170 HW2           1 RES     
    9563 OW          37.0770     1.6530   -72.3220 OW            1 RES     
    9564 HW1         36.2610     1.1320   -72.0740 HW1           1 RES     
    9565 HW2         37.8940     1.1440   -72.0480 HW2           1 RES     
    9566 OW          23.3190     2.4480   -64.8600 OW            1 RES     
    9567 HW1         23.2120     1.5080   -64.5370 HW1           1 RES     
    9568 HW2         24.2910     2.6800   -64.8960 HW2           1 RES     
    9569 OW          36.2660    24.1890   -70.3410 OW            1 RES     
    9570 HW1         37.2330    24.2400   -70.0920 HW1           1 RES     
    9571 HW2         35.7470    23.7890   -69.5860 HW2           1 RES     
    9572 OW          -5.7370     1.8560   -64.1730 OW            1 RES     
    9573 HW1         -4.8420     1.4520   -64.3600 HW1           1 RES     
    9574 HW2         -6.1060     1.4720   -63.3260 HW2           1 RES     
    9575 OW          16.4530    22.9430   -66.0570 OW            1 RES     
    9576 HW1         16.9450    23.7900   -66.2560 HW1           1 RES     
    9577 HW2         15.7600    23.1160   -65.3570 HW2           1 RES     
    9578 OW          42.1580     4.9330   -71.1380 OW            1 RES     
    9579 HW1         42.1420     5.7970   -70.6350 HW1           1 RES     
    9580 HW2         43.1010     4.7060   -71.3820 HW2           1 RES     
    9581 OW          14.6970     4.9070   -66.4800 OW            1 RES     
    9582 HW1         14.0410     5.4040   -65.9130 HW1           1 RES     
    9583 HW2         15.3360     5.5540   -66.8960 HW2           1 RES     
    9584 OW          35.9020    18.7060   -60.8380 OW            1 RES     
    9585 HW1         36.7350    19.2540   -60.9060 HW1           1 RES     
    9586 HW2         35.1040    19.3080   -60.8720 HW2           1 RES     
    9587 OW          31.5810     0.8780   -59.9490 OW            1 RES     
    9588 HW1         32.3120     0.4990   -59.3830 HW1           1 RES     
    9589 HW2         31.8150     0.7670   -60.9150 HW2           1 RES     
    9590 OW          42.9260    35.7850   -64.4690 OW            1 RES     
    9591 HW1         42.3650    36.5040   -64.8770 HW1           1 RES     
    9592 HW2         43.8740    36.0990   -64.4030 HW2           1 RES     
    9593 OW           3.0680    30.9020   -73.2400 OW            1 RES     
    9594 HW1          3.3780    31.1360   -74.1620 HW1           1 RES     
    9595 HW2          2.2270    30.3650   -73.2970 HW2           1 RES     
    9596 OW          27.3020     6.4550   -74.0540 OW            1 RES     
    9597 HW1         26.9790     6.4910   -73.1090 HW1           1 RES     
    9598 HW2         28.0880     7.0640   -74.1620 HW2           1 RES     
    9599 OW          23.5980    34.8800   -60.3280 OW            1 RES     
    9600 HW1         23.4110    35.8190   -60.0410 HW1           1 RES     
    9601 HW2         22.7420    34.4350   -60.5940 HW2           1 RES     
    9602 OW          35.0550    23.9800   -63.4340 OW            1 RES     
    9603 HW1         34.5360    23.4670   -64.1170 HW1           1 RES     
    9604 HW2         34.4370    24.5770   -62.9230 HW2           1 RES     
    9605 OW          35.8700    15.4280   -74.1290 OW            1 RES     
    9606 HW1         36.4640    14.6240   -74.1620 HW1           1 RES     
    9607 HW2         34.9140    15.1360   -74.0920 HW2           1 RES     
    9608 OW          40.4070    22.2700   -69.7640 OW            1 RES     
    9609 HW1         41.3210    21.8680   -69.7400 HW1           1 RES     
    9610 HW2         40.4790    23.2670   -69.7220 HW2           1 RES     
    9611 OW          32.4300    31.7820   -58.6370 OW            1 RES     
    9612 HW1         32.5560    32.7520   -58.8400 HW1           1 RES     
    9613 HW2         33.3170    31.3200   -58.6500 HW2           1 RES     
    9614 OW          44.3340    41.0180   -63.9300 OW            1 RES     
    9615 HW1         43.3570    41.0550   -64.1400 HW1           1 RES     
    9616 HW2         44.7330    41.9280   -64.0400 HW2           1 RES     
    9617 OW          39.2310    25.7890   -72.8480 OW            1 RES     
    9618 HW1         40.1960    25.5350   -72.9030 HW1           1 RES     
    9619 HW2         38.6770    24.9680   -72.7060 HW2           1 RES     
    9620 OW          21.0170    20.7690   -68.4110 OW            1 RES     
    9621 HW1         20.7180    20.1260   -67.7070 HW1           1 RES     
    9622 HW2         21.8020    21.2900   -68.0750 HW2           1 RES     
    9623 OW          -2.8670     0.4900   -65.1250 OW            1 RES     
    9624 HW1         -3.6460     0.0900   -65.6060 HW1           1 RES     
    9625 HW2         -2.9630     0.3290   -64.1430 HW2           1 RES     
    9626 OW           9.8200    14.0260   -73.1290 OW            1 RES     
    9627 HW1          9.9330    13.0370   -73.2260 HW1           1 RES     
    9628 HW2         10.5360    14.3860   -72.5310 HW2           1 RES     
    9629 OW           1.1850    22.3280   -71.0420 OW            1 RES     
    9630 HW1          0.3870    22.1410   -70.4700 HW1           1 RES     
    9631 HW2          1.2030    21.6860   -71.8090 HW2           1 RES     
    9632 OW          21.9020    29.3740   -70.9140 OW            1 RES     
    9633 HW1         22.5540    30.0580   -70.5890 HW1           1 RES     
    9634 HW2         21.0230    29.5060   -70.4560 HW2           1 RES     
    9635 OW          42.4830     8.1950   -61.2030 OW            1 RES     
    9636 HW1         43.1290     7.4530   -61.0240 HW1           1 RES     
    9637 HW2         41.6430     8.0400   -60.6820 HW2           1 RES     
    9638 OW          26.3020    17.4860   -71.6860 OW            1 RES     
    9639 HW1         26.4840    18.4540   -71.8580 HW1           1 RES     
    9640 HW2         27.1020    16.9450   -71.9420 HW2           1 RES     
    9641 OW          15.5110    -3.8290   -62.3830 OW            1 RES     
    9642 HW1         14.5270    -3.7190   -62.2460 HW1           1 RES     
    9643 HW2         15.9400    -2.9290   -62.4540 HW2           1 RES     
    9644 OW          32.9530    22.2290   -63.1840 OW            1 RES     
    9645 HW1         32.8890    21.9790   -64.1500 HW1           1 RES     
    9646 HW2         32.5310    23.1250   -63.0420 HW2           1 RES     
    9647 OW          36.7570    24.7880   -73.8030 OW            1 RES     
    9648 HW1         36.5710    24.2560   -72.9780 HW1           1 RES     
    9649 HW2         35.9000    25.1590   -74.1620 HW2           1 RES     
    9650 OW          -3.6010     4.2820   -72.8590 OW            1 RES     
    9651 HW1         -3.6530     4.5390   -71.8940 HW1           1 RES     
    9652 HW2         -2.6550     4.3540   -73.1730 HW2           1 RES     
    9653 OW          -3.8210    28.7630   -62.4090 OW            1 RES     
    9654 HW1         -3.0710    28.8970   -63.0550 HW1           1 RES     
    9655 HW2         -4.4990    28.1450   -62.8070 HW2           1 RES     
    9656 OW          15.9340    36.2390   -66.3910 OW            1 RES     
    9657 HW1         16.8190    36.2410   -65.9270 HW1           1 RES     
    9658 HW2         15.3620    36.9720   -66.0220 HW2           1 RES     
    9659 OW          26.7310    35.2680   -68.2100 OW            1 RES     
    9660 HW1         25.9980    34.6200   -68.0070 HW1           1 RES     
    9661 HW2         27.5990    34.9070   -67.8670 HW2           1 RES     
    9662 OW          -3.6650    34.9240   -73.6580 OW            1 RES     
    9663 HW1         -3.5760    35.1410   -72.6870 HW1           1 RES     
    9664 HW2         -2.9010    35.3270   -74.1620 HW2           1 RES     
    9665 OW           4.0640    24.9090   -59.6340 OW            1 RES     
    9666 HW1          4.6190    24.6110   -58.8590 HW1           1 RES     
    9667 HW2          4.2480    25.8740   -59.8250 HW2           1 RES     
    9668 OW           5.3840    10.1680   -59.1230 OW            1 RES     
    9669 HW1          6.1430     9.8590   -58.5510 HW1           1 RES     
    9670 HW2          4.7170    10.6550   -58.5600 HW2           1 RES     
    9671 OW          33.4930    33.0460   -73.3740 OW            1 RES     
    9672 HW1         34.1030    33.1470   -74.1600 HW1           1 RES     
    9673 HW2         32.5500    32.9500   -73.6930 HW2           1 RES     
    9674 OW          19.2310    20.7800   -60.8340 OW            1 RES     
    9675 HW1         19.9920    20.1880   -60.5710 HW1           1 RES     
    9676 HW2         19.5410    21.7300   -60.8630 HW2           1 RES     
    9677 OW           1.5000     0.5130   -73.8940 OW            1 RES     
    9678 HW1          2.1630    -0.2290   -73.9820 HW1           1 RES     
    9679 HW2          0.5760     0.1510   -74.0170 HW2           1 RES     
    9680 OW           1.3960    -2.5600   -64.2410 OW            1 RES     
    9681 HW1          0.8760    -1.7280   -64.4320 HW1           1 RES     
    9682 HW2          0.8610    -3.3580   -64.5170 HW2           1 RES     
    9683 OW          28.4380    17.8690   -73.4260 OW            1 RES     
    9684 HW1         27.5570    18.1550   -73.8020 HW1           1 RES     
    9685 HW2         29.0160    17.5170   -74.1620 HW2           1 RES     
    9686 OW           2.7570    12.4950   -59.7700 OW            1 RES     
    9687 HW1          2.9310    11.5150   -59.8560 HW1           1 RES     
    9688 HW2          3.6230    12.9940   -59.8220 HW2           1 RES     
    9689 OW           2.2750    22.2320   -66.3580 OW            1 RES     
    9690 HW1          2.7150    23.1280   -66.3980 HW1           1 RES     
    9691 HW2          1.2810    22.3480   -66.3780 HW2           1 RES     
    9692 OW          26.0070     7.1150   -70.0570 OW            1 RES     
    9693 HW1         25.6740     7.3120   -70.9790 HW1           1 RES     
    9694 HW2         26.6780     7.8060   -69.7890 HW2           1 RES     
    9695 OW          41.1730    16.8740   -71.2650 OW            1 RES     
    9696 HW1         40.3020    16.7930   -71.7490 HW1           1 RES     
    9697 HW2         41.8720    17.2230   -71.8910 HW2           1 RES     
    9698 OW           0.4220    24.4070   -67.6680 OW            1 RES     
    9699 HW1         -0.0630    25.2810   -67.6530 HW1           1 RES     
    9700 HW2         -0.2400    23.6570   -67.6390 HW2           1 RES     
    9701 OW          26.3980    24.6730   -61.2600 OW            1 RES     
    9702 HW1         26.7750    25.2590   -61.9760 HW1           1 RES     
    9703 HW2         26.7710    23.7490   -61.3520 HW2           1 RES     
    9704 OW           2.3110    30.3120   -65.9080 OW            1 RES     
    9705 HW1          2.9670    31.0650   -65.9080 HW1           1 RES     
    9706 HW2          2.8020    29.4400   -65.9080 HW2           1 RES     
    9707 OW          31.5380    15.9770   -66.5410 OW            1 RES     
    9708 HW1         31.7140    16.1310   -67.5130 HW1           1 RES     
    9709 HW2         31.4110    14.9990   -66.3760 HW2           1 RES     
    9710 OW          18.1780    40.1840   -66.3040 OW            1 RES     
    9711 HW1         19.0790    40.3830   -66.6880 HW1           1 RES     
    9712 HW2         17.8030    39.3650   -66.7390 HW2           1 RES     
    9713 OW          -6.0230    31.2110   -60.4500 OW            1 RES     
    9714 HW1         -5.3080    30.8210   -61.0290 HW1           1 RES     
    9715 HW2         -6.1070    30.6700   -59.6130 HW2           1 RES     
    9716 OW          34.2950    31.1610   -64.1330 OW            1 RES     
    9717 HW1         35.0870    30.9530   -63.5610 HW1           1 RES     
    9718 HW2         33.9170    30.3110   -64.5010 HW2           1 RES     
    9719 OW          26.2310    40.5940   -59.8620 OW            1 RES     
    9720 HW1         26.3870    41.5810   -59.8430 HW1           1 RES     
    9721 HW2         25.2930    40.4100   -60.1550 HW2           1 RES     
    9722 OW           5.2150     6.6630   -67.8280 OW            1 RES     
    9723 HW1          5.0070     6.6370   -68.8050 HW1           1 RES     
    9724 HW2          4.4310     7.0330   -67.3290 HW2           1 RES     
    9725 OW          23.1650    33.5000   -64.5620 OW            1 RES     
    9726 HW1         24.0720    33.1400   -64.3450 HW1           1 RES     
    9727 HW2         22.5930    33.4820   -63.7410 HW2           1 RES     
    9728 OW          31.7010    12.6130   -62.4160 OW            1 RES     
    9729 HW1         30.9100    12.6110   -63.0270 HW1           1 RES     
    9730 HW2         32.2450    13.4370   -62.5780 HW2           1 RES     
    9731 OW          16.1540    28.6200   -73.9180 OW            1 RES     
    9732 HW1         16.7420    29.3910   -74.1620 HW1           1 RES     
    9733 HW2         15.2070    28.8330   -74.1590 HW2           1 RES     
    9734 OW          35.1100     6.8530   -68.9530 OW            1 RES     
    9735 HW1         35.2860     6.0340   -69.4980 HW1           1 RES     
    9736 HW2         34.3470     6.6820   -68.3290 HW2           1 RES     
    9737 OW          -4.9580    38.4890   -60.2070 OW            1 RES     
    9738 HW1         -5.6610    37.7880   -60.3240 HW1           1 RES     
    9739 HW2         -4.7100    38.5540   -59.2400 HW2           1 RES     
    9740 OW          39.5810    -0.7740   -69.8350 OW            1 RES     
    9741 HW1         40.4250    -0.6280   -70.3500 HW1           1 RES     
    9742 HW2         38.9520    -0.0150   -70.0040 HW2           1 RES     
    9743 OW           1.2610    35.2710   -66.5720 OW            1 RES     
    9744 HW1          0.6220    35.8960   -67.0180 HW1           1 RES     
    9745 HW2          1.7480    35.7530   -65.8430 HW2           1 RES     
    9746 OW           7.2410    35.6300   -66.3620 OW            1 RES     
    9747 HW1          6.3440    35.9740   -66.6370 HW1           1 RES     
    9748 HW2          7.4960    34.8600   -66.9480 HW2           1 RES     
    9749 OW          31.1590    22.4940   -68.6670 OW            1 RES     
    9750 HW1         30.8420    22.3310   -69.6000 HW1           1 RES     
    9751 HW2         30.4720    23.0240   -68.1680 HW2           1 RES     
    9752 OW           9.2150    23.8750   -64.2790 OW            1 RES     
    9753 HW1          9.3250    22.9220   -64.0010 HW1           1 RES     
    9754 HW2          8.2550    24.1400   -64.1890 HW2           1 RES     
    9755 OW          45.3910    29.9880   -73.4070 OW            1 RES     
    9756 HW1         45.2920    29.3410   -74.1620 HW1           1 RES     
    9757 HW2         44.9250    30.8430   -73.6370 HW2           1 RES     
    9758 OW          -3.0490    21.7290   -69.8690 OW            1 RES     
    9759 HW1         -3.5400    22.5540   -69.5900 HW1           1 RES     
    9760 HW2         -2.0970    21.9600   -70.0710 HW2           1 RES     
    9761 OW          38.3510    17.9250   -67.6910 OW            1 RES     
    9762 HW1         37.4530    18.3560   -67.6150 HW1           1 RES     
    9763 HW2         39.0610    18.6290   -67.6930 HW2           1 RES     
    9764 OW          16.2470    38.9450   -72.6990 OW            1 RES     
    9765 HW1         15.4860    39.4780   -72.3300 HW1           1 RES     
    9766 HW2         17.1040    39.4370   -72.5490 HW2           1 RES     
    9767 OW          41.9480    12.3680   -71.2790 OW            1 RES     
    9768 HW1         42.7860    12.3430   -71.8230 HW1           1 RES     
    9769 HW2         41.9330    13.2020   -70.7270 HW2           1 RES     
    9770 OW          18.8230    23.2470   -64.0590 OW            1 RES     
    9771 HW1         18.9150    24.2420   -64.0610 HW1           1 RES     
    9772 HW2         17.8530    23.0010   -64.0490 HW2           1 RES     
    9773 OW           4.5770    32.9250   -67.5570 OW            1 RES     
    9774 HW1          5.1670    32.1920   -67.8930 HW1           1 RES     
    9775 HW2          3.6190    32.6660   -67.6850 HW2           1 RES     
    9776 OW          32.6690    41.3170   -67.7010 OW            1 RES     
    9777 HW1         32.4690    40.3980   -68.0400 HW1           1 RES     
    9778 HW2         33.4590    41.2820   -67.0880 HW2           1 RES     
    9779 OW          35.8310    -0.5170   -63.2280 OW            1 RES     
    9780 HW1         35.7750    -1.5110   -63.1440 HW1           1 RES     
    9781 HW2         36.7910    -0.2370   -63.2620 HW2           1 RES     
    9782 OW          38.9910    10.4320   -69.6440 OW            1 RES     
    9783 HW1         38.3780    11.0030   -70.1880 HW1           1 RES     
    9784 HW2         39.8310    10.2590   -70.1580 HW2           1 RES     
    9785 OW          37.4910    22.0680   -64.3450 OW            1 RES     
    9786 HW1         38.3000    22.3020   -64.8830 HW1           1 RES     
    9787 HW2         36.7030    22.5800   -64.6870 HW2           1 RES     
    9788 OW           9.5950    28.2590   -74.1610 OW            1 RES     
    9789 HW1          8.9120    27.5430   -74.0200 HW1           1 RES     
    9790 HW2          9.6520    28.8330   -73.3440 HW2           1 RES     
    9791 OW          17.4340    14.6370   -64.6950 OW            1 RES     
    9792 HW1         17.0200    14.2710   -63.8630 HW1           1 RES     
    9793 HW2         18.0540    13.9560   -65.0870 HW2           1 RES     
    9794 OW          35.2960    37.9140   -69.2410 OW            1 RES     
    9795 HW1         34.9640    38.7730   -69.6290 HW1           1 RES     
    9796 HW2         36.2500    38.0210   -68.9600 HW2           1 RES     
    9797 OW          -4.8520    14.9450   -70.7110 OW            1 RES     
    9798 HW1         -5.8080    15.1790   -70.8820 HW1           1 RES     
    9799 HW2         -4.3610    15.7560   -70.3930 HW2           1 RES     
    9800 OW          24.3060    14.6620   -65.1010 OW            1 RES     
    9801 HW1         23.5570    15.1760   -65.5180 HW1           1 RES     
    9802 HW2         23.9320    13.9870   -64.4640 HW2           1 RES     
    9803 OW          44.4220    20.5590   -71.8460 OW            1 RES     
    9804 HW1         43.8750    19.7760   -71.5530 HW1           1 RES     
    9805 HW2         43.8290    21.3580   -71.9560 HW2           1 RES     
    9806 OW           2.9200     0.3730   -69.5280 OW            1 RES     
    9807 HW1          2.3150    -0.4220   -69.5680 HW1           1 RES     
    9808 HW2          3.8720     0.0710   -69.5590 HW2           1 RES     
    9809 OW           2.8320    27.5150   -63.1420 OW            1 RES     
    9810 HW1          2.6610    27.9640   -64.0180 HW1           1 RES     
    9811 HW2          2.4930    26.5740   -63.1780 HW2           1 RES     
    9812 OW          -2.3620    36.6320   -60.5700 OW            1 RES     
    9813 HW1         -1.5520    37.1890   -60.7520 HW1           1 RES     
    9814 HW2         -3.1550    37.2280   -60.4400 HW2           1 RES     
    9815 OW          38.2870    16.1990   -70.1290 OW            1 RES     
    9816 HW1         38.0070    15.2740   -70.3840 HW1           1 RES     
    9817 HW2         39.2610    16.2020   -69.9030 HW2           1 RES     
    9818 OW          30.6700    18.1800   -68.6620 OW            1 RES     
    9819 HW1         30.2900    17.3360   -69.0400 HW1           1 RES     
    9820 HW2         31.6660    18.1040   -68.6080 HW2           1 RES     
    9821 OW          19.4950    17.2340   -60.5890 OW            1 RES     
    9822 HW1         19.9190    16.3460   -60.7640 HW1           1 RES     
    9823 HW2         18.6070    17.2760   -61.0460 HW2           1 RES     
    9824 OW          22.2580     9.4240   -64.4300 OW            1 RES     
    9825 HW1         23.1470     9.0040   -64.6090 HW1           1 RES     
    9826 HW2         21.9180     9.8560   -65.2660 HW2           1 RES     
    9827 OW           5.5140    23.8160   -64.0930 OW            1 RES     
    9828 HW1          6.2390    23.3310   -64.5810 HW1           1 RES     
    9829 HW2          5.4340    23.4520   -63.1650 HW2           1 RES     
    9830 OW          21.3220    -1.7910   -65.2040 OW            1 RES     
    9831 HW1         21.4790    -2.7780   -65.2250 HW1           1 RES     
    9832 HW2         21.3620    -1.4660   -64.2590 HW2           1 RES     
    9833 OW          32.3960    16.2200   -71.2970 OW            1 RES     
    9834 HW1         32.8360    16.7310   -70.5600 HW1           1 RES     
    9835 HW2         33.0860    15.6980   -71.7990 HW2           1 RES     
    9836 OW          16.3220    24.0180   -73.4480 OW            1 RES     
    9837 HW1         16.9200    23.2280   -73.3220 HW1           1 RES     
    9838 HW2         16.5490    24.7200   -72.7720 HW2           1 RES     
    9839 OW          11.2010     2.2070   -74.1620 OW            1 RES     
    9840 HW1         10.6060     1.4040   -74.1600 HW1           1 RES     
    9841 HW2         10.6420     3.0370   -74.1570 HW2           1 RES     
    9842 OW           0.1410    36.2040   -61.7740 OW            1 RES     
    9843 HW1          0.8700    35.5330   -61.8990 HW1           1 RES     
    9844 HW2          0.5390    37.1160   -61.6730 HW2           1 RES     
    9845 OW          22.0680    29.4650   -74.0630 OW            1 RES     
    9846 HW1         21.1730    29.0560   -73.8860 HW1           1 RES     
    9847 HW2         22.0210    30.4520   -73.9110 HW2           1 RES     
    9848 OW          -3.1810    39.8950   -60.1500 OW            1 RES     
    9849 HW1         -2.4180    40.1760   -59.5700 HW1           1 RES     
    9850 HW2         -2.9910    40.1490   -61.0990 HW2           1 RES     
    9851 OW          33.0690    -0.0180   -63.3930 OW            1 RES     
    9852 HW1         33.5360    -0.6900   -63.9670 HW1           1 RES     
    9853 HW2         32.3120     0.3890   -63.9040 HW2           1 RES     
    9854 OW          27.9000    25.4890   -66.8680 OW            1 RES     
    9855 HW1         28.5050    24.7490   -66.5740 HW1           1 RES     
    9856 HW2         27.0150    25.3970   -66.4110 HW2           1 RES     
    9857 OW          21.0530     0.2200   -61.5060 OW            1 RES     
    9858 HW1         21.6880     0.8520   -61.0630 HW1           1 RES     
    9859 HW2         20.9480     0.4720   -62.4680 HW2           1 RES     
    9860 OW           5.3430     0.4350   -63.4070 OW            1 RES     
    9861 HW1          4.3600     0.5970   -63.4750 HW1           1 RES     
    9862 HW2          5.5070    -0.5090   -63.1200 HW2           1 RES     
    9863 OW          35.0810    11.8520   -73.0850 OW            1 RES     
    9864 HW1         35.6290    11.1150   -72.6910 HW1           1 RES     
    9865 HW2         35.5140    12.1800   -73.9240 HW2           1 RES     
    9866 OW          36.9440    19.2950   -71.0930 OW            1 RES     
    9867 HW1         37.1590    18.3370   -71.2810 HW1           1 RES     
    9868 HW2         36.3480    19.3520   -70.2910 HW2           1 RES     
    9869 OW          35.3240    25.1350   -60.3980 OW            1 RES     
    9870 HW1         35.3960    24.2750   -59.8940 HW1           1 RES     
    9871 HW2         34.4770    25.6020   -60.1440 HW2           1 RES     
    9872 OW          10.5260    17.8220   -73.7510 OW            1 RES     
    9873 HW1         11.3970    18.0880   -74.1620 HW1           1 RES     
    9874 HW2         10.2110    16.9660   -74.1620 HW2           1 RES     
    9875 OW          -5.0990    -0.0070   -71.4660 OW            1 RES     
    9876 HW1         -5.8400     0.6640   -71.4910 HW1           1 RES     
    9877 HW2         -4.4200     0.2190   -72.1650 HW2           1 RES     
    9878 OW          -5.8400    29.0290   -64.8730 OW            1 RES     
    9879 HW1         -4.8990    29.3410   -64.9990 HW1           1 RES     
    9880 HW2         -6.1080    29.1550   -63.9170 HW2           1 RES     
    9881 OW          33.3840    -1.4000   -73.7880 OW            1 RES     
    9882 HW1         32.5240    -1.0540   -74.1620 HW1           1 RES     
    9883 HW2         34.0640    -0.6660   -73.7840 HW2           1 RES     
    9884 OW          10.9440    20.8020   -61.8240 OW            1 RES     
    9885 HW1         10.9330    20.4860   -60.8760 HW1           1 RES     
    9886 HW2         10.4340    21.6590   -61.8960 HW2           1 RES     
    9887 OW          -5.2390    36.4950   -73.1790 OW            1 RES     
    9888 HW1         -5.3450    36.3370   -74.1600 HW1           1 RES     
    9889 HW2         -6.1070    36.3140   -72.7160 HW2           1 RES     
    9890 OW          26.9390    26.3190   -70.9190 OW            1 RES     
    9891 HW1         26.3570    26.6750   -71.6500 HW1           1 RES     
    9892 HW2         26.8710    25.3210   -70.8950 HW2           1 RES     
    9893 OW          30.1990    34.4790   -71.5210 OW            1 RES     
    9894 HW1         30.0800    35.4700   -71.4800 HW1           1 RES     
    9895 HW2         31.1750    34.2620   -71.5540 HW2           1 RES     
    9896 OW          -2.3890     5.6490   -66.6170 OW            1 RES     
    9897 HW1         -1.8080     6.3000   -67.1030 HW1           1 RES     
    9898 HW2         -1.8250     5.0730   -66.0260 HW2           1 RES     
    9899 OW           6.3480    23.0990   -59.3490 OW            1 RES     
    9900 HW1          5.7890    22.7670   -58.5900 HW1           1 RES     
    9901 HW2          6.2100    22.5140   -60.1470 HW2           1 RES     
    9902 OW          -5.3100    23.7430   -70.1340 OW            1 RES     
    9903 HW1         -4.7830    24.5140   -69.7770 HW1           1 RES     
    9904 HW2         -6.1070    24.0850   -70.6320 HW2           1 RES     
    9905 OW          20.4190    42.5210   -65.4000 OW            1 RES     
    9906 HW1         19.7700    43.2760   -65.3170 HW1           1 RES     
    9907 HW2         21.3510    42.8830   -65.4320 HW2           1 RES     
    9908 OW          11.8980    34.5430   -62.9230 OW            1 RES     
    9909 HW1         12.7140    34.0050   -63.1300 HW1           1 RES     
    9910 HW2         12.1500    35.3260   -62.3540 HW2           1 RES     
    9911 OW          40.7100    28.9870   -59.0860 OW            1 RES     
    9912 HW1         40.9280    29.9440   -59.2740 HW1           1 RES     
    9913 HW2         39.8660    28.9350   -58.5520 HW2           1 RES     
    9914 OW          32.9420    33.6400   -69.0590 OW            1 RES     
    9915 HW1         32.0600    33.9410   -69.4200 HW1           1 RES     
    9916 HW2         33.3720    34.3930   -68.5580 HW2           1 RES     
    9917 OW           6.5070    27.0870   -60.8900 OW            1 RES     
    9918 HW1          7.2140    27.5550   -61.4190 HW1           1 RES     
    9919 HW2          6.8770    26.8190   -60.0010 HW2           1 RES     
    9920 OW          12.6220    34.8700   -73.5260 OW            1 RES     
    9921 HW1         12.6080    35.8220   -73.8290 HW1           1 RES     
    9922 HW2         13.1690    34.3250   -74.1610 HW2           1 RES     
    9923 OW          26.7450    36.4150   -58.5920 OW            1 RES     
    9924 HW1         27.3180    37.2340   -58.6000 HW1           1 RES     
    9925 HW2         25.7820    36.6830   -58.5540 HW2           1 RES     
    9926 OW          42.8320    27.3620   -58.8090 OW            1 RES     
    9927 HW1         42.9390    28.3040   -59.1240 HW1           1 RES     
    9928 HW2         41.8790    27.2010   -58.5520 HW2           1 RES     
    9929 OW          19.6570    -0.3690   -72.0730 OW            1 RES     
    9930 HW1         20.0940    -1.2680   -72.0770 HW1           1 RES     
    9931 HW2         19.1910    -0.2200   -72.9450 HW2           1 RES     
    9932 OW          41.0760    30.4860   -67.6280 OW            1 RES     
    9933 HW1         40.9900    29.4920   -67.6860 HW1           1 RES     
    9934 HW2         40.6440    30.9060   -68.4260 HW2           1 RES     
    9935 OW           2.7310    35.0990   -69.1960 OW            1 RES     
    9936 HW1          2.0910    35.8010   -68.8840 HW1           1 RES     
    9937 HW2          3.4790    35.5300   -69.7010 HW2           1 RES     
    9938 OW          42.2050     5.1970   -63.5080 OW            1 RES     
    9939 HW1         42.3600     4.4310   -64.1310 HW1           1 RES     
    9940 HW2         42.1340     6.0450   -64.0340 HW2           1 RES     
    9941 OW          17.1570    20.4460   -65.1720 OW            1 RES     
    9942 HW1         16.4780    21.1010   -64.8430 HW1           1 RES     
    9943 HW2         16.9180    19.5290   -64.8510 HW2           1 RES     
    9944 OW          14.7230    27.7230   -68.9350 OW            1 RES     
    9945 HW1         15.7150    27.8440   -68.9630 HW1           1 RES     
    9946 HW2         14.2800    28.6180   -68.8780 HW2           1 RES     
    9947 OW          -5.7190    16.4230   -64.0250 OW            1 RES     
    9948 HW1         -5.5980    16.2880   -63.0420 HW1           1 RES     
    9949 HW2         -6.1080    15.5960   -64.4300 HW2           1 RES     
    9950 OW          33.5650    27.7420   -71.1550 OW            1 RES     
    9951 HW1         33.9810    26.8480   -70.9930 HW1           1 RES     
    9952 HW2         32.5700    27.6640   -71.0880 HW2           1 RES     
    9953 OW          19.4920    -2.8560   -73.5210 OW            1 RES     
    9954 HW1         19.5130    -2.0550   -74.1180 HW1           1 RES     
    9955 HW2         18.6370    -2.8630   -73.0010 HW2           1 RES     
    9956 OW          30.7230    29.5820   -65.7750 OW            1 RES     
    9957 HW1         30.0730    29.0260   -65.2590 HW1           1 RES     
    9958 HW2         30.9980    29.0930   -66.6030 HW2           1 RES     
    9959 OW          10.8140    32.4900   -62.8180 OW            1 RES     
    9960 HW1         10.7590    31.6920   -62.2190 HW1           1 RES     
    9961 HW2         11.3960    32.2800   -63.6030 HW2           1 RES     
    9962 OW          28.6710    10.5260   -63.0770 OW            1 RES     
    9963 HW1         29.6250    10.8250   -63.0970 HW1           1 RES     
    9964 HW2         28.6350     9.5260   -63.0740 HW2           1 RES     
    9965 OW          -4.1090    33.9240   -66.3480 OW            1 RES     
    9966 HW1         -3.8050    33.5720   -65.4630 HW1           1 RES     
    9967 HW2         -3.9890    34.9160   -66.3720 HW2           1 RES     
    9968 OW          22.4020    23.1730   -59.3480 OW            1 RES     
    9969 HW1         21.9210    22.3850   -58.9660 HW1           1 RES     
    9970 HW2         23.2750    22.8770   -59.7340 HW2           1 RES     
    9971 OW          -2.0510    20.2090   -68.6290 OW            1 RES     
    9972 HW1         -2.0910    19.7780   -69.5290 HW1           1 RES     
    9973 HW2         -2.7750    19.8370   -68.0470 HW2           1 RES     
    9974 OW          38.5800    43.0760   -66.0430 OW            1 RES     
    9975 HW1         38.3920    42.1680   -66.4150 HW1           1 RES     
    9976 HW2         39.5690    43.2100   -65.9740 HW2           1 RES     
    9977 OW          34.6850    36.4080   -60.7380 OW            1 RES     
    9978 HW1         34.3130    36.9890   -60.0160 HW1           1 RES     
    9979 HW2         33.9540    36.1530   -61.3720 HW2           1 RES     
    9980 OW          10.7660    37.5870   -63.5990 OW            1 RES     
    9981 HW1         11.3870    38.3650   -63.5010 HW1           1 RES     
    9982 HW2         10.0060    37.6850   -62.9570 HW2           1 RES     
    9983 OW          16.2010     9.9370   -67.2230 OW            1 RES     
    9984 HW1         15.2980    10.2110   -66.8950 HW1           1 RES     
    9985 HW2         16.5110     9.1320   -66.7160 HW2           1 RES     
    9986 OW          24.2980    37.6720   -72.4420 OW            1 RES     
    9987 HW1         23.7800    36.8500   -72.6760 HW1           1 RES     
    9988 HW2         25.1460    37.4120   -71.9800 HW2           1 RES     
    9989 OW          31.0430     9.3410   -64.7660 OW            1 RES     
    9990 HW1         30.0470     9.2620   -64.7510 HW1           1 RES     
    9991 HW2         31.4510     8.4290   -64.7140 HW2           1 RES     
    9992 OW          41.6890    -3.2600   -65.1660 OW            1 RES     
    9993 HW1         41.3750    -4.2030   -65.2770 HW1           1 RES     
    9994 HW2         42.6700    -3.2110   -65.3560 HW2           1 RES     
    9995 OW          -3.3860     7.8780   -68.8340 OW            1 RES     
    9996 HW1         -3.4030     7.6440   -67.8620 HW1           1 RES     
    9997 HW2         -4.0870     8.5650   -69.0240 HW2           1 RES     
    9998 OW          29.3020    15.6000   -72.2470 OW            1 RES     
    9999 HW1         28.4200    15.1410   -72.3470 HW1           1 RES     
   10000 HW2         29.2530    16.2570   -71.4940 HW2           1 RES     
   10001 OW          23.1500    19.9870   -66.1720 OW            1 RES     
   10002 HW1         22.2520    19.5790   -66.0110 HW1           1 RES     
   10003 HW2         23.8400    19.2650   -66.2260 HW2           1 RES     
   10004 OW          15.4770    -2.4650   -73.7150 OW            1 RES     
   10005 HW1         16.4510    -2.5780   -73.9070 HW1           1 RES     
   10006 HW2         15.2240    -1.5030   -73.8240 HW2           1 RES     
   10007 OW           6.4080    32.3880   -69.8990 OW            1 RES     
   10008 HW1          7.3710    32.5250   -69.6670 HW1           1 RES     
   10009 HW2          6.2340    32.7360   -70.8210 HW2           1 RES     
   10010 OW          27.9270    10.5420   -70.2920 OW            1 RES     
   10011 HW1         27.3870    10.1780   -69.5340 HW1           1 RES     
   10012 HW2         28.4840     9.8100   -70.6860 HW2           1 RES     
   10013 OW          -2.5440    -4.3150   -62.6650 OW            1 RES     
   10014 HW1         -2.1250    -3.4110   -62.5920 HW1           1 RES     
   10015 HW2         -3.2050    -4.3160   -63.4160 HW2           1 RES     
   10016 OW          41.0780    35.1550   -71.8070 OW            1 RES     
   10017 HW1         42.0260    35.2430   -71.5020 HW1           1 RES     
   10018 HW2         40.9960    34.3680   -72.4200 HW2           1 RES     
   10019 OW          38.6340    37.0560   -67.6310 OW            1 RES     
   10020 HW1         37.6620    36.8290   -67.6630 HW1           1 RES     
   10021 HW2         38.7430    38.0430   -67.5130 HW2           1 RES     
   10022 OW          28.7470    32.4750   -59.5140 OW            1 RES     
   10023 HW1         28.3170    31.7290   -60.0220 HW1           1 RES     
   10024 HW2         28.8320    32.2180   -58.5520 HW2           1 RES     
   10025 OW          37.4660    -1.4860   -72.4340 OW            1 RES     
   10026 HW1         37.8270    -2.4160   -72.4860 HW1           1 RES     
   10027 HW2         37.8610    -1.0180   -71.6440 HW2           1 RES     
   10028 OW          16.3710    28.7240   -61.1710 OW            1 RES     
   10029 HW1         16.7410    27.8360   -60.8990 HW1           1 RES     
   10030 HW2         15.3720    28.6900   -61.1520 HW2           1 RES     
   10031 OW           6.4190    19.1380   -61.4660 OW            1 RES     
   10032 HW1          5.6380    19.0780   -60.8440 HW1           1 RES     
   10033 HW2          6.5250    20.0810   -61.7790 HW2           1 RES     
   10034 OW          20.8350    17.8310   -67.6930 OW            1 RES     
   10035 HW1         20.3490    17.7810   -66.8210 HW1           1 RES     
   10036 HW2         20.2530    17.4680   -68.4210 HW2           1 RES     
   10037 OW          30.3330    25.3760   -61.6720 OW            1 RES     
   10038 HW1         30.7690    24.8780   -62.4200 HW1           1 RES     
   10039 HW2         30.8760    26.1850   -61.4480 HW2           1 RES     
   10040 OW          25.2180     9.8890   -73.7360 OW            1 RES     
   10041 HW1         25.3370     8.9930   -74.1620 HW1           1 RES     
   10042 HW2         26.1150    10.3010   -73.5690 HW2           1 RES     
   10043 OW          18.6850    28.8970   -65.4380 OW            1 RES     
   10044 HW1         17.7760    29.1670   -65.1220 HW1           1 RES     
   10045 HW2         18.9060    27.9880   -65.0840 HW2           1 RES     
   10046 OW          27.1070    36.9730   -63.1460 OW            1 RES     
   10047 HW1         27.3320    37.8010   -63.6580 HW1           1 RES     
   10048 HW2         26.1620    37.0270   -62.8220 HW2           1 RES     
   10049 OW           4.1650     8.7210   -72.8740 OW            1 RES     
   10050 HW1          4.5540     9.6200   -72.6780 HW1           1 RES     
   10051 HW2          3.2020     8.7070   -72.6040 HW2           1 RES     
   10052 OW          17.7690     3.8710   -63.6450 OW            1 RES     
   10053 HW1         17.3590     4.7760   -63.7560 HW1           1 RES     
   10054 HW2         18.7080     3.9680   -63.3160 HW2           1 RES     
   10055 OW          44.8560    37.0280   -72.8120 OW            1 RES     
   10056 HW1         45.4030    37.8630   -72.8470 HW1           1 RES     
   10057 HW2         45.4040    36.2570   -73.1390 HW2           1 RES     
   10058 OW          17.4170     8.9540   -64.6680 OW            1 RES     
   10059 HW1         17.5660     9.1300   -63.6960 HW1           1 RES     
   10060 HW2         18.2960     8.7930   -65.1180 HW2           1 RES     
   10061 OW          39.9430    -3.1020   -72.2040 OW            1 RES     
   10062 HW1         40.3530    -3.7410   -71.5540 HW1           1 RES     
   10063 HW2         39.7190    -3.5840   -73.0510 HW2           1 RES     
   10064 OW          12.2920    11.6880   -71.2230 OW            1 RES     
   10065 HW1         11.3740    11.2930   -71.2260 HW1           1 RES     
   10066 HW2         12.2260    12.6860   -71.2150 HW2           1 RES     
   10067 OW          13.9240    34.1800   -59.5920 OW            1 RES     
   10068 HW1         13.5180    35.0780   -59.4250 HW1           1 RES     
   10069 HW2         13.5430    33.7920   -60.4310 HW2           1 RES     
   10070 OW          43.6540    23.9520   -70.2170 OW            1 RES     
   10071 HW1         44.0840    24.4350   -69.4560 HW1           1 RES     
   10072 HW2         42.8880    23.4060   -69.8760 HW2           1 RES     
   10073 OW          -0.2780    37.5240   -72.3090 OW            1 RES     
   10074 HW1          0.3470    37.8790   -71.6160 HW1           1 RES     
   10075 HW2         -0.0760    36.5590   -72.4780 HW2           1 RES     
   10076 OW          -1.0900    28.2590   -65.1130 OW            1 RES     
   10077 HW1         -0.0990    28.3680   -65.0480 HW1           1 RES     
   10078 HW2         -1.3190    27.7860   -65.9650 HW2           1 RES     
   10079 OW          42.3720    24.8110   -60.1930 OW            1 RES     
   10080 HW1         41.8250    24.7670   -59.3580 HW1           1 RES     
   10081 HW2         42.7960    25.7140   -60.2670 HW2           1 RES     
   10082 OW          40.3610    33.9100   -64.0820 OW            1 RES     
   10083 HW1         40.6200    34.8410   -64.3390 HW1           1 RES     
   10084 HW2         41.1850    33.3540   -63.9690 HW2           1 RES     
   10085 OW          -0.5530    10.5790   -72.5650 OW            1 RES     
   10086 HW1          0.0800    11.2780   -72.8950 HW1           1 RES     
   10087 HW2         -0.2610     9.6810   -72.8950 HW2           1 RES     
   10088 OW          21.1380     4.4590   -63.9750 OW            1 RES     
   10089 HW1         20.8940     3.4950   -64.0760 HW1           1 RES     
   10090 HW2         21.1050     4.7120   -63.0080 HW2           1 RES     
   10091 OW          -0.6450    33.6590   -63.2260 OW            1 RES     
   10092 HW1         -1.3090    33.2270   -62.6170 HW1           1 RES     
   10093 HW2          0.2080    33.1370   -63.2140 HW2           1 RES     
   10094 OW           7.5350    42.1840   -72.7800 OW            1 RES     
   10095 HW1          7.6620    43.1510   -72.5620 HW1           1 RES     
   10096 HW2          7.1870    41.7030   -71.9760 HW2           1 RES     
   10097 OW          41.3630    -1.4920   -67.4320 OW            1 RES     
   10098 HW1         40.7600    -2.1170   -66.9380 HW1           1 RES     
   10099 HW2         41.1190    -1.4890   -68.4020 HW2           1 RES     
   10100 OW          23.2190     4.3320   -62.5300 OW            1 RES     
   10101 HW1         23.8050     4.8840   -61.9380 HW1           1 RES     
   10102 HW2         23.3660     3.3620   -62.3350 HW2           1 RES     
   10103 OW          43.2710    10.1010   -70.4650 OW            1 RES     
   10104 HW1         43.4200     9.6000   -69.6130 HW1           1 RES     
   10105 HW2         42.3210     9.9870   -70.7580 HW2           1 RES     
   10106 OW           6.8320    29.0000   -72.9770 OW            1 RES     
   10107 HW1          7.0420    28.8870   -72.0070 HW1           1 RES     
   10108 HW2          6.0470    28.4270   -73.2170 HW2           1 RES     
   10109 OW          30.7460    18.2030   -61.8640 OW            1 RES     
   10110 HW1         30.5480    17.5640   -61.1210 HW1           1 RES     
   10111 HW2         30.0840    18.0720   -62.6020 HW2           1 RES     
   10112 OW          24.7390    10.5460   -60.9940 OW            1 RES     
   10113 HW1         24.1770    11.2030   -60.4920 HW1           1 RES     
   10114 HW2         24.9450     9.7640   -60.4050 HW2           1 RES     
   10115 OW          -1.9570    -0.5490   -72.4010 OW            1 RES     
   10116 HW1         -1.4560    -1.3870   -72.1880 HW1           1 RES     
   10117 HW2         -1.4770    -0.0480   -73.1210 HW2           1 RES     
   10118 OW          -1.1680    33.5790   -58.8340 OW            1 RES     
   10119 HW1         -0.2750    34.0260   -58.8820 HW1           1 RES     
   10120 HW2         -1.0500    32.6270   -58.5510 HW2           1 RES     
   10121 OW          40.7930    25.8580   -65.3930 OW            1 RES     
   10122 HW1         41.6550    26.1930   -65.7720 HW1           1 RES     
   10123 HW2         40.0370    26.1360   -65.9860 HW2           1 RES     
   10124 OW          23.4070    17.3200   -70.0190 OW            1 RES     
   10125 HW1         22.4400    17.2050   -70.2450 HW1           1 RES     
   10126 HW2         23.8040    16.4320   -69.7850 HW2           1 RES     
   10127 OW          19.8230    32.8810   -70.0030 OW            1 RES     
   10128 HW1         19.8600    33.0860   -70.9810 HW1           1 RES     
   10129 HW2         19.0150    32.3250   -69.8090 HW2           1 RES     
   10130 OW          40.8720     1.8680   -70.8740 OW            1 RES     
   10131 HW1         40.0220     1.5120   -71.2600 HW1           1 RES     
   10132 HW2         41.5070     2.0940   -71.6130 HW2           1 RES     
   10133 OW          -3.4260     3.1700   -60.5370 OW            1 RES     
   10134 HW1         -2.4430     3.0060   -60.4530 HW1           1 RES     
   10135 HW2         -3.6520     4.0580   -60.1380 HW2           1 RES     
   10136 OW          -2.0810    -2.5670   -66.8630 OW            1 RES     
   10137 HW1         -1.2040    -2.4550   -67.3300 HW1           1 RES     
   10138 HW2         -2.4940    -1.6690   -66.7080 HW2           1 RES     
   10139 OW           8.7780     8.9090   -59.1370 OW            1 RES     
   10140 HW1          8.2430     9.7510   -59.1970 HW1           1 RES     
   10141 HW2          8.2220     8.1900   -58.7180 HW2           1 RES     
   10142 OW          10.7130     7.2540   -64.6650 OW            1 RES     
   10143 HW1         10.1760     6.4850   -65.0130 HW1           1 RES     
   10144 HW2         11.6690     7.1430   -64.9370 HW2           1 RES     
   10145 OW          33.3180     9.1170   -68.6480 OW            1 RES     
   10146 HW1         32.7700     8.3210   -68.9020 HW1           1 RES     
   10147 HW2         32.9260     9.9390   -69.0630 HW2           1 RES     
   10148 OW           5.1470    26.2850   -67.2030 OW            1 RES     
   10149 HW1          5.7220    26.9930   -66.7940 HW1           1 RES     
   10150 HW2          5.1050    26.4200   -68.1930 HW2           1 RES     
   10151 OW          35.5070     4.0610   -65.7320 OW            1 RES     
   10152 HW1         36.4270     4.3360   -66.0090 HW1           1 RES     
   10153 HW2         35.4930     3.8860   -64.7480 HW2           1 RES     
   10154 OW           0.2110    -0.4570   -67.4020 OW            1 RES     
   10155 HW1          0.3200    -1.1010   -68.1570 HW1           1 RES     
   10156 HW2         -0.7620    -0.3020   -67.2320 HW2           1 RES     
   10157 OW          45.4000    17.0860   -71.2720 OW            1 RES     
   10158 HW1         45.1140    17.9610   -71.6590 HW1           1 RES     
   10159 HW2         45.4020    16.3880   -71.9880 HW2           1 RES     
   10160 OW          21.6250    15.1140   -68.8870 OW            1 RES     
   10161 HW1         22.1880    15.8030   -68.4320 HW1           1 RES     
   10162 HW2         21.1380    15.5340   -69.6530 HW2           1 RES     
   10163 OW          35.8160    27.4220   -62.8040 OW            1 RES     
   10164 HW1         35.1110    26.7160   -62.7440 HW1           1 RES     
   10165 HW2         36.4110    27.3690   -62.0020 HW2           1 RES     
   10166 OW          38.9150    29.1240   -68.3360 OW            1 RES     
   10167 HW1         38.2310    29.6310   -68.8580 HW1           1 RES     
   10168 HW2         38.7570    28.1420   -68.4450 HW2           1 RES     
   10169 OW          34.5520    12.2520   -65.2320 OW            1 RES     
   10170 HW1         33.7030    12.2900   -64.7050 HW1           1 RES     
   10171 HW2         35.1330    11.5200   -64.8750 HW2           1 RES     
   10172 OW          23.9500    11.1760   -69.0720 OW            1 RES     
   10173 HW1         24.0310    11.7480   -68.2570 HW1           1 RES     
   10174 HW2         24.8390    10.7710   -69.2860 HW2           1 RES     
   10175 OW          31.0990     3.0580   -64.3950 OW            1 RES     
   10176 HW1         32.0720     2.8580   -64.5120 HW1           1 RES     
   10177 HW2         30.9750     4.0380   -64.2440 HW2           1 RES     
   10178 OW          20.8900    11.0360   -72.5760 OW            1 RES     
   10179 HW1         20.6800    10.5350   -71.7370 HW1           1 RES     
   10180 HW2         21.4520    10.4650   -73.1740 HW2           1 RES     
   10181 OW          30.0010    18.5150   -64.8590 OW            1 RES     
   10182 HW1         30.8240    17.9660   -64.7150 HW1           1 RES     
   10183 HW2         30.2550    19.4750   -64.9710 HW2           1 RES     
   10184 OW          34.3350    43.2750   -68.2380 OW            1 RES     
   10185 HW1         35.1280    42.7450   -67.9430 HW1           1 RES     
   10186 HW2         33.8150    42.7520   -68.9130 HW2           1 RES     
   10187 OW          31.0050    27.7650   -74.1610 OW            1 RES     
   10188 HW1         30.4460    28.5940   -74.1550 HW1           1 RES     
   10189 HW2         31.8660    27.9400   -73.6840 HW2           1 RES     
   10190 OW          13.2140    -3.3920   -70.7850 OW            1 RES     
   10191 HW1         12.2240    -3.4000   -70.9190 HW1           1 RES     
   10192 HW2         13.5810    -4.3070   -70.9500 HW2           1 RES     
   10193 OW          23.6760    29.9850   -72.4790 OW            1 RES     
   10194 HW1         24.0530    29.0800   -72.2860 HW1           1 RES     
   10195 HW2         24.2700    30.6860   -72.0830 HW2           1 RES     
   10196 OW          43.6710     7.9000   -71.0780 OW            1 RES     
   10197 HW1         43.4890     7.4780   -70.1910 HW1           1 RES     
   10198 HW2         42.9070     7.7190   -71.6980 HW2           1 RES     
   10199 OW           9.1060    32.4300   -60.9660 OW            1 RES     
   10200 HW1          9.4180    33.0960   -60.2890 HW1           1 RES     
   10201 HW2          8.8030    32.9090   -61.7900 HW2           1 RES     
   10202 OW          40.5490    10.9530   -73.0400 OW            1 RES     
   10203 HW1         40.2890    11.1810   -72.1030 HW1           1 RES     
   10204 HW2         41.1710    10.1690   -73.0330 HW2           1 RES     
   10205 OW          28.6180     3.9350   -73.4740 OW            1 RES     
   10206 HW1         29.4920     3.4660   -73.5980 HW1           1 RES     
   10207 HW2         28.7680     4.9240   -73.4670 HW2           1 RES     
   10208 OW          11.6730    23.9480   -72.4650 OW            1 RES     
   10209 HW1         11.1240    24.3630   -71.7410 HW1           1 RES     
   10210 HW2         12.2010    24.6580   -72.9320 HW2           1 RES     
   10211 OW          22.4550    25.1510   -60.9940 OW            1 RES     
   10212 HW1         22.8470    26.0070   -61.3280 HW1           1 RES     
   10213 HW2         23.0060    24.3820   -61.3190 HW2           1 RES     
   10214 OW          19.4310     5.5110   -66.0040 OW            1 RES     
   10215 HW1         19.6670     5.4080   -66.9690 HW1           1 RES     
   10216 HW2         18.4400     5.6180   -65.9120 HW2           1 RES     
   10217 OW          31.2720     6.0990   -66.6250 OW            1 RES     
   10218 HW1         32.1920     6.3310   -66.9380 HW1           1 RES     
   10219 HW2         30.8620     6.8930   -66.1750 HW2           1 RES     
   10220 OW          39.4980    14.7790   -68.1980 OW            1 RES     
   10221 HW1         39.0060    13.9110   -68.1410 HW1           1 RES     
   10222 HW2         40.4310    14.6570   -67.8580 HW2           1 RES     
   10223 OW           9.5570    13.3630   -70.6900 OW            1 RES     
   10224 HW1         10.2520    13.2280   -69.9840 HW1           1 RES     
   10225 HW2          9.1610    12.4800   -70.9410 HW2           1 RES     
   10226 OW          31.5750     9.3530   -59.3110 OW            1 RES     
   10227 HW1         32.1090    10.1040   -58.9220 HW1           1 RES     
   10228 HW2         31.8040     8.5020   -58.8380 HW2           1 RES     
   10229 OW          34.7010    20.6900   -64.1560 OW            1 RES     
   10230 HW1         34.8560    20.7620   -63.1710 HW1           1 RES     
   10231 HW2         35.5800    20.6740   -64.6320 HW2           1 RES     
   10232 OW          30.8930    20.5900   -67.5830 OW            1 RES     
   10233 HW1         30.2030    20.2970   -68.2430 HW1           1 RES     
   10234 HW2         31.1260    19.8250   -66.9820 HW2           1 RES     
   10235 OW          -4.2720     5.1930   -63.7370 OW            1 RES     
   10236 HW1         -5.1710     5.4170   -64.1120 HW1           1 RES     
   10237 HW2         -3.5720     5.3460   -64.4350 HW2           1 RES     
   10238 OW           9.3210    -2.1330   -74.0770 OW            1 RES     
   10239 HW1          9.9340    -1.3440   -74.1160 HW1           1 RES     
   10240 HW2          9.7390    -2.8540   -73.5240 HW2           1 RES     
   10241 OW          37.7580    11.4350   -61.1030 OW            1 RES     
   10242 HW1         38.0960    10.5210   -60.8830 HW1           1 RES     
   10243 HW2         37.8250    11.5870   -62.0900 HW2           1 RES     
   10244 OW          23.5290    -1.5770   -59.2610 OW            1 RES     
   10245 HW1         23.3350    -0.9000   -58.5520 HW1           1 RES     
   10246 HW2         24.5190    -1.6960   -59.3470 HW2           1 RES     
   10247 OW          -4.9380    -0.9880   -67.4350 OW            1 RES     
   10248 HW1         -4.2800    -1.1420   -68.1710 HW1           1 RES     
   10249 HW2         -4.6890    -1.5460   -66.6430 HW2           1 RES     
   10250 OW          16.1130     1.9420   -71.1030 OW            1 RES     
   10251 HW1         17.0950     2.1140   -71.1740 HW1           1 RES     
   10252 HW2         15.6580     2.7510   -70.7310 HW2           1 RES     
   10253 OW          -0.0340    41.0880   -61.5060 OW            1 RES     
   10254 HW1         -0.8300    41.6600   -61.3100 HW1           1 RES     
   10255 HW2          0.0480    40.3790   -60.8060 HW2           1 RES     
   10256 OW           6.7210    39.8490   -69.6300 OW            1 RES     
   10257 HW1          6.8480    39.9810   -70.6120 HW1           1 RES     
   10258 HW2          6.0540    39.1200   -69.4740 HW2           1 RES     
   10259 OW          42.6610    40.8630   -59.5300 OW            1 RES     
   10260 HW1         42.7380    39.9250   -59.8660 HW1           1 RES     
   10261 HW2         42.8990    40.8910   -58.5590 HW2           1 RES     
   10262 OW          37.9240    -3.7370   -70.6750 OW            1 RES     
   10263 HW1         38.3200    -4.3100   -69.9590 HW1           1 RES     
   10264 HW2         37.5680    -4.3160   -71.4080 HW2           1 RES     
   10265 OW          10.1650    -0.3560   -62.9500 OW            1 RES     
   10266 HW1          9.7150     0.5370   -62.9540 HW1           1 RES     
   10267 HW2         11.1570    -0.2300   -62.9790 HW2           1 RES     
   10268 OW          44.3840    19.8490   -64.0080 OW            1 RES     
   10269 HW1         43.4560    19.4800   -63.9840 HW1           1 RES     
   10270 HW2         45.0430    19.0970   -63.9980 HW2           1 RES     
   10271 OW          19.2420     9.8090   -69.3500 OW            1 RES     
   10272 HW1         19.8850     9.3860   -68.7120 HW1           1 RES     
   10273 HW2         18.3870    10.0160   -68.8730 HW2           1 RES     
   10274 OW          27.7800    -2.7750   -61.3310 OW            1 RES     
   10275 HW1         27.9660    -2.8840   -62.3070 HW1           1 RES     
   10276 HW2         28.0480    -1.8550   -61.0410 HW2           1 RES     
   10277 OW           4.7680    42.7050   -69.7320 OW            1 RES     
   10278 HW1          4.4660    43.2760   -68.9690 HW1           1 RES     
   10279 HW2          4.8160    43.2580   -70.5640 HW2           1 RES     
   10280 OW          29.1890    36.6810   -61.4860 OW            1 RES     
   10281 HW1         28.8210    35.7550   -61.4040 HW1           1 RES     
   10282 HW2         30.0990    36.6430   -61.9010 HW2           1 RES     
   10283 OW          -3.3670     7.5340   -65.1750 OW            1 RES     
   10284 HW1         -3.2370     7.6240   -64.1890 HW1           1 RES     
   10285 HW2         -4.3170     7.7430   -65.4080 HW2           1 RES     
   10286 OW           2.5220    24.5320   -73.7920 OW            1 RES     
   10287 HW1          2.8390    25.1590   -73.0820 HW1           1 RES     
   10288 HW2          1.7010    24.0570   -73.4750 HW2           1 RES     
   10289 OW          -5.5290    29.1980   -67.1030 OW            1 RES     
   10290 HW1         -6.1020    30.0160   -67.1070 HW1           1 RES     
   10291 HW2         -6.1070    28.3860   -67.0230 HW2           1 RES     
   10292 OW           0.7430     2.0610   -68.8770 OW            1 RES     
   10293 HW1          1.0900     1.1670   -68.5990 HW1           1 RES     
   10294 HW2         -0.2230     1.9830   -69.1230 HW2           1 RES     
   10295 OW          16.3160     6.7500   -64.4180 OW            1 RES     
   10296 HW1         15.5830     6.0900   -64.2540 HW1           1 RES     
   10297 HW2         16.5900     6.7120   -65.3790 HW2           1 RES     
   10298 OW          33.5580    37.3710   -67.8930 OW            1 RES     
   10299 HW1         33.3530    38.3490   -67.8740 HW1           1 RES     
   10300 HW2         32.7240    36.8510   -67.7060 HW2           1 RES     
   10301 OW          31.7440     5.0730   -61.3040 OW            1 RES     
   10302 HW1         31.4660     5.4120   -60.4060 HW1           1 RES     
   10303 HW2         31.1210     4.3460   -61.5930 HW2           1 RES     
   10304 OW          40.4740    23.0290   -74.0220 OW            1 RES     
   10305 HW1         40.8110    23.0530   -73.0810 HW1           1 RES     
   10306 HW2         39.8170    23.7700   -74.1610 HW2           1 RES     
   10307 OW          23.2720    31.0360   -66.2260 OW            1 RES     
   10308 HW1         24.0210    30.3870   -66.3580 HW1           1 RES     
   10309 HW2         23.0440    31.0890   -65.2540 HW2           1 RES     
   10310 OW           0.1230    20.9890   -64.7990 OW            1 RES     
   10311 HW1         -0.6280    20.3480   -64.9560 HW1           1 RES     
   10312 HW2         -0.2460    21.9090   -64.6670 HW2           1 RES     
   10313 OW          34.4550    41.6960   -72.2640 OW            1 RES     
   10314 HW1         33.7080    41.0330   -72.3050 HW1           1 RES     
   10315 HW2         34.0790    42.6200   -72.2050 HW2           1 RES     
   10316 OW          20.6850    31.5670   -68.4410 OW            1 RES     
   10317 HW1         21.6010    31.6100   -68.8390 HW1           1 RES     
   10318 HW2         20.2920    30.6620   -68.6050 HW2           1 RES     
   10319 OW           8.9000    30.2510   -68.1290 OW            1 RES     
   10320 HW1          9.0610    30.5480   -69.0700 HW1           1 RES     
   10321 HW2          8.9800    29.2550   -68.0750 HW2           1 RES     
   10322 OW          43.5000    21.6020   -65.2460 OW            1 RES     
   10323 HW1         43.7540    22.2280   -65.9820 HW1           1 RES     
   10324 HW2         42.9350    20.8640   -65.6150 HW2           1 RES     
   10325 OW          39.3080     1.3090   -63.3110 OW            1 RES     
   10326 HW1         38.5980     2.0030   -63.1970 HW1           1 RES     
   10327 HW2         40.1960     1.7550   -63.4260 HW2           1 RES     
   10328 OW          30.8400    26.9540   -63.6440 OW            1 RES     
   10329 HW1         29.9050    27.1530   -63.9370 HW1           1 RES     
   10330 HW2         31.4750    27.5710   -64.1080 HW2           1 RES     
   10331 OW          -1.1770    23.3600   -59.4730 OW            1 RES     
   10332 HW1         -1.0710    24.3390   -59.6430 HW1           1 RES     
   10333 HW2         -2.1490    23.1320   -59.4240 HW2           1 RES     
   10334 OW          29.1440    40.2400   -69.6490 OW            1 RES     
   10335 HW1         29.6580    41.0950   -69.7080 HW1           1 RES     
   10336 HW2         28.1890    40.4380   -69.4250 HW2           1 RES     
   10337 OW          -1.5320    11.5790   -67.4410 OW            1 RES     
   10338 HW1         -2.1420    12.3400   -67.2200 HW1           1 RES     
   10339 HW2         -0.7190    11.6250   -66.8600 HW2           1 RES     
   10340 OW          26.2310    42.3950   -63.7330 OW            1 RES     
   10341 HW1         25.8350    43.2760   -63.9910 HW1           1 RES     
   10342 HW2         26.2440    42.3130   -62.7360 HW2           1 RES     
   10343 OW          43.0140    33.0230   -65.3360 OW            1 RES     
   10344 HW1         42.9930    32.3000   -64.6470 HW1           1 RES     
   10345 HW2         43.8710    33.5320   -65.2600 HW2           1 RES     
   10346 OW          45.4040    32.8510   -61.8520 OW            1 RES     
   10347 HW1         44.8320    33.6520   -62.0230 HW1           1 RES     
   10348 HW2         44.8230    32.0480   -61.7170 HW2           1 RES     
   10349 OW          18.3290    16.2280   -68.9940 OW            1 RES     
   10350 HW1         18.1520    17.2080   -69.0790 HW1           1 RES     
   10351 HW2         17.4600    15.7320   -68.9920 HW2           1 RES     
   10352 OW          33.7920    31.0500   -69.1600 OW            1 RES     
   10353 HW1         34.3030    31.8800   -69.3830 HW1           1 RES     
   10354 HW2         33.0340    31.2780   -68.5490 HW2           1 RES     
   10355 OW          -3.0570    43.2620   -60.1930 OW            1 RES     
   10356 HW1         -2.1480    43.2760   -60.6080 HW1           1 RES     
   10357 HW2         -3.6480    42.6380   -60.7040 HW2           1 RES     
   10358 OW          36.7060    37.8440   -72.4780 OW            1 RES     
   10359 HW1         37.1140    38.7560   -72.4360 HW1           1 RES     
   10360 HW2         37.0160    37.3030   -71.6960 HW2           1 RES     
   10361 OW          33.3060    17.1040   -60.1770 OW            1 RES     
   10362 HW1         33.0050    18.0560   -60.1600 HW1           1 RES     
   10363 HW2         34.3040    17.0700   -60.2310 HW2           1 RES     
   10364 OW          43.0700     7.0260   -65.7770 OW            1 RES     
   10365 HW1         43.4360     7.5370   -65.0000 HW1           1 RES     
   10366 HW2         43.6680     6.2500   -65.9780 HW2           1 RES     
   10367 OW          28.6910    20.9980   -73.3380 OW            1 RES     
   10368 HW1         28.1220    20.9600   -74.1580 HW1           1 RES     
   10369 HW2         28.1690    21.4050   -72.5880 HW2           1 RES     
   10370 OW          42.9940    -4.0860   -63.0500 OW            1 RES     
   10371 HW1         42.6740    -3.1420   -63.1250 HW1           1 RES     
   10372 HW2         43.9840    -4.0930   -62.9080 HW2           1 RES     
   10373 OW          29.9080    29.7600   -59.4110 OW            1 RES     
   10374 HW1         28.9810    29.4100   -59.5450 HW1           1 RES     
   10375 HW2         29.9520    30.2680   -58.5510 HW2           1 RES     
   10376 OW          42.9430    25.9270   -74.1580 OW            1 RES     
   10377 HW1         43.9240    25.8720   -73.9770 HW1           1 RES     
   10378 HW2         42.4750    25.1740   -73.6950 HW2           1 RES     
   10379 OW          17.5280    13.8940   -73.6220 OW            1 RES     
   10380 HW1         17.6100    13.4970   -72.7080 HW1           1 RES     
   10381 HW2         18.3360    13.6570   -74.1620 HW2           1 RES     
   10382 OW          21.1560     6.8710   -63.4290 OW            1 RES     
   10383 HW1         21.5840     7.5540   -62.8390 HW1           1 RES     
   10384 HW2         21.8190     6.5500   -64.1050 HW2           1 RES     
   10385 OW          44.0340    37.5890   -66.8820 OW            1 RES     
   10386 HW1         44.5860    36.9830   -66.3100 HW1           1 RES     
   10387 HW2         44.3080    37.4860   -67.8390 HW2           1 RES     
   10388 OW          37.3020    36.3410   -73.9730 OW            1 RES     
   10389 HW1         37.7320    35.8700   -73.2040 HW1           1 RES     
   10390 HW2         36.4110    35.9270   -74.1620 HW2           1 RES     
   10391 OW          -6.1080    10.0760   -67.6810 OW            1 RES     
   10392 HW1         -5.3680    10.7460   -67.7260 HW1           1 RES     
   10393 HW2         -5.7220     9.1530   -67.6740 HW2           1 RES     
   10394 OW          31.5510     9.4110   -67.3530 OW            1 RES     
   10395 HW1         30.6870     9.6560   -66.9140 HW1           1 RES     
   10396 HW2         31.9970     8.6840   -66.8310 HW2           1 RES     
   10397 OW          15.1900    35.7490   -60.6990 OW            1 RES     
   10398 HW1         16.1510    35.8160   -60.9650 HW1           1 RES     
   10399 HW2         14.6570    35.3850   -61.4630 HW2           1 RES     
   10400 OW           8.9060    14.1020   -63.7840 OW            1 RES     
   10401 HW1          9.2560    14.4820   -62.9290 HW1           1 RES     
   10402 HW2          9.4190    13.2760   -64.0170 HW2           1 RES     
   10403 OW          18.6950    22.1720   -68.3380 OW            1 RES     
   10404 HW1         18.0400    22.4620   -67.6410 HW1           1 RES     
   10405 HW2         18.8470    21.1860   -68.2640 HW2           1 RES     
   10406 OW          26.6860    28.9360   -71.3920 OW            1 RES     
   10407 HW1         26.3360    29.7300   -71.8870 HW1           1 RES     
   10408 HW2         26.0130    28.6420   -70.7130 HW2           1 RES     
   10409 OW          35.2770    43.2760   -60.3420 OW            1 RES     
   10410 HW1         35.8840    42.8700   -61.0240 HW1           1 RES     
   10411 HW2         34.8920    42.5550   -59.7660 HW2           1 RES     
   10412 OW          27.5760     1.7590   -62.7300 OW            1 RES     
   10413 HW1         28.3430     1.7890   -63.3710 HW1           1 RES     
   10414 HW2         27.0100     0.9580   -62.9250 HW2           1 RES     
   10415 OW           5.7310    32.4640   -61.5050 OW            1 RES     
   10416 HW1          5.0280    33.0930   -61.8350 HW1           1 RES     
   10417 HW2          6.6150    32.7130   -61.9020 HW2           1 RES     
   10418 OW           9.1080    13.8270   -68.1390 OW            1 RES     
   10419 HW1          8.6050    14.2330   -67.3770 HW1           1 RES     
   10420 HW2          8.7040    12.9410   -68.3710 HW2           1 RES     
   10421 OW          42.3610    15.5710   -63.8130 OW            1 RES     
   10422 HW1         42.1050    16.5360   -63.7800 HW1           1 RES     
   10423 HW2         42.1430    15.1980   -64.7160 HW2           1 RES     
   10424 OW          30.1340    24.7490   -59.1120 OW            1 RES     
   10425 HW1         30.2480    25.7420   -59.1110 HW1           1 RES     
   10426 HW2         30.9940    24.3150   -59.3810 HW2           1 RES     
   10427 OW          26.7580     4.3220   -64.1500 OW            1 RES     
   10428 HW1         26.4200     3.3820   -64.1540 HW1           1 RES     
   10429 HW2         25.9840     4.9550   -64.1280 HW2           1 RES     
   10430 OW          -3.1240    10.0920   -66.8210 OW            1 RES     
   10431 HW1         -3.1810    10.1670   -67.8160 HW1           1 RES     
   10432 HW2         -3.9400     9.6310   -66.4730 HW2           1 RES     
   10433 OW          34.0490     2.2440   -62.5040 OW            1 RES     
   10434 HW1         34.6100     1.4570   -62.7580 HW1           1 RES     
   10435 HW2         33.4870     2.0110   -61.7100 HW2           1 RES     
   10436 OW          15.4950    -2.7630   -71.4570 OW            1 RES     
   10437 HW1         16.4480    -2.5050   -71.6120 HW1           1 RES     
   10438 HW2         15.3080    -2.7760   -70.4740 HW2           1 RES     
   10439 OW          41.3080    33.0460   -61.7950 OW            1 RES     
   10440 HW1         40.3440    33.2660   -61.9380 HW1           1 RES     
   10441 HW2         41.6630    33.5840   -61.0300 HW2           1 RES     
   10442 OW          12.8400    16.4120   -60.5700 OW            1 RES     
   10443 HW1         12.0180    16.6640   -60.0590 HW1           1 RES     
   10444 HW2         12.5840    16.1180   -61.4910 HW2           1 RES     
   10445 OW          -4.3220    32.2640   -68.2680 OW            1 RES     
   10446 HW1         -4.8220    32.4580   -69.1120 HW1           1 RES     
   10447 HW2         -3.3880    31.9820   -68.4910 HW2           1 RES     
   10448 OW          -4.8320    24.1340   -65.8500 OW            1 RES     
   10449 HW1         -5.8030    24.2490   -65.6430 HW1           1 RES     
   10450 HW2         -4.3710    25.0200   -65.7910 HW2           1 RES     
   10451 OW          21.5740    39.0260   -62.8430 OW            1 RES     
   10452 HW1         21.7490    38.8060   -61.8840 HW1           1 RES     
   10453 HW2         22.4370    39.2470   -63.2980 HW2           1 RES     
   10454 OW          39.0590    -3.3300   -66.2500 OW            1 RES     
   10455 HW1         38.7990    -3.1450   -67.1970 HW1           1 RES     
   10456 HW2         39.0470    -4.3170   -66.0870 HW2           1 RES     
   10457 OW          41.1370     4.4340   -69.2310 OW            1 RES     
   10458 HW1         40.3460     3.8390   -69.3720 HW1           1 RES     
   10459 HW2         41.9710     3.8820   -69.2130 HW2           1 RES     
   10460 OW          15.2570    36.4030   -72.0020 OW            1 RES     
   10461 HW1         14.7410    35.5580   -72.1410 HW1           1 RES     
   10462 HW2         14.6470    37.1880   -72.1070 HW2           1 RES     
   10463 OW          45.2810    22.2740   -63.5680 OW            1 RES     
   10464 HW1         45.4010    22.4640   -64.5420 HW1           1 RES     
   10465 HW2         44.3100    22.3290   -63.3340 HW2           1 RES     
   10466 OW          28.6910    12.7840   -63.4560 OW            1 RES     
   10467 HW1         27.7270    12.9980   -63.2970 HW1           1 RES     
   10468 HW2         29.1300    13.5530   -63.9230 HW2           1 RES     
   10469 OW          42.6810    37.2450   -73.0620 OW            1 RES     
   10470 HW1         42.0640    37.4780   -72.3110 HW1           1 RES     
   10471 HW2         42.5000    36.3100   -73.3670 HW2           1 RES     
   10472 OW           7.9900    30.9850   -71.1150 OW            1 RES     
   10473 HW1          8.0710    31.8340   -71.6350 HW1           1 RES     
   10474 HW2          8.7980    30.4170   -71.2740 HW2           1 RES     
   10475 OW           9.0950     8.0020   -66.6570 OW            1 RES     
   10476 HW1         10.0750     7.8310   -66.7600 HW1           1 RES     
   10477 HW2          8.9220     8.9860   -66.6890 HW2           1 RES     
   10478 OW          25.4890    19.9960   -67.6000 OW            1 RES     
   10479 HW1         26.0280    20.7480   -67.9780 HW1           1 RES     
   10480 HW2         25.9890    19.5740   -66.8440 HW2           1 RES     
   10481 OW          -0.1670    28.5270   -62.1220 OW            1 RES     
   10482 HW1          0.3650    28.7790   -62.9300 HW1           1 RES     
   10483 HW2         -1.0620    28.9730   -62.1610 HW2           1 RES     
   10484 OW          16.7950    31.1180   -64.2570 OW            1 RES     
   10485 HW1         16.2810    30.4680   -63.6990 HW1           1 RES     
   10486 HW2         17.3170    31.7290   -63.6610 HW2           1 RES     
   10487 OW           9.3520    10.5520   -68.7050 OW            1 RES     
   10488 HW1          8.7170    10.8770   -69.4040 HW1           1 RES     
   10489 HW2         10.1680    11.1300   -68.7000 HW2           1 RES     
   10490 OW          36.7390    27.9460   -59.2900 OW            1 RES     
   10491 HW1         37.0210    28.8950   -59.1560 HW1           1 RES     
   10492 HW2         35.9610    27.9140   -59.9190 HW2           1 RES     
   10493 OW          35.4360     7.4110   -73.2940 OW            1 RES     
   10494 HW1         35.3650     6.5130   -72.8600 HW1           1 RES     
   10495 HW2         36.3490     7.7880   -73.1330 HW2           1 RES     
   10496 OW           1.7330    42.3000   -69.3580 OW            1 RES     
   10497 HW1          1.5170    43.2760   -69.3490 HW1           1 RES     
   10498 HW2          2.5850    42.1410   -68.8580 HW2           1 RES     
   10499 OW          27.0070    -1.3040   -59.1830 OW            1 RES     
   10500 HW1         27.9040    -1.2110   -58.7510 HW1           1 RES     
   10501 HW2         26.6630    -0.4000   -59.4360 HW2           1 RES     
   10502 OW          39.1360     4.7270   -64.9700 OW            1 RES     
   10503 HW1         39.2370     3.8320   -65.4040 HW1           1 RES     
   10504 HW2         39.7940     4.8110   -64.2210 HW2           1 RES     
   10505 OW          -5.2460    25.8270   -58.9480 OW            1 RES     
   10506 HW1         -5.5680    24.9680   -58.5510 HW1           1 RES     
   10507 HW2         -4.2470    25.8580   -58.9130 HW2           1 RES     
   10508 OW          14.7960     9.8960   -69.7710 OW            1 RES     
   10509 HW1         14.3360    10.6770   -69.3510 HW1           1 RES     
   10510 HW2         15.7050     9.7870   -69.3680 HW2           1 RES     
   10511 OW          -0.9800    21.2510   -72.1940 OW            1 RES     
   10512 HW1         -0.8290    22.1350   -72.6350 HW1           1 RES     
   10513 HW2         -1.6760    20.7400   -72.6980 HW2           1 RES     
   10514 OW          34.6370     6.2700   -60.0250 OW            1 RES     
   10515 HW1         33.7870     6.0020   -60.4770 HW1           1 RES     
   10516 HW2         35.3280     6.4870   -60.7140 HW2           1 RES     
   10517 OW          38.1070    15.8230   -73.1340 OW            1 RES     
   10518 HW1         38.1240    16.0820   -74.0990 HW1           1 RES     
   10519 HW2         37.9950    16.6420   -72.5700 HW2           1 RES     
   10520 OW          41.7370    29.8330   -73.4050 OW            1 RES     
   10521 HW1         41.0210    30.2180   -73.9870 HW1           1 RES     
   10522 HW2         41.3420    29.1350   -72.8070 HW2           1 RES     
   10523 OW           5.4080     5.0190   -65.7160 OW            1 RES     
   10524 HW1          5.1860     5.7510   -65.0720 HW1           1 RES     
   10525 HW2          5.0430     4.1520   -65.3740 HW2           1 RES     
   10526 OW          -5.3580    15.2380   -66.4670 OW            1 RES     
   10527 HW1         -5.7700    16.1460   -66.5340 HW1           1 RES     
   10528 HW2         -6.0790    14.5510   -66.3660 HW2           1 RES     
   10529 OW          -5.9330    17.1050   -68.9650 OW            1 RES     
   10530 HW1         -6.1080    17.6230   -68.1290 HW1           1 RES     
   10531 HW2         -5.7510    16.1490   -68.7340 HW2           1 RES     
   10532 OW          42.1420     2.8230   -65.6710 OW            1 RES     
   10533 HW1         42.7890     2.0870   -65.8650 HW1           1 RES     
   10534 HW2         41.2110     2.4560   -65.6650 HW2           1 RES     
   10535 OW          15.0360    10.3260   -63.5250 OW            1 RES     
   10536 HW1         15.2270    10.8730   -64.3390 HW1           1 RES     
   10537 HW2         15.6190    10.6330   -62.7720 HW2           1 RES     
   10538 OW          44.0280    14.0200   -64.6030 OW            1 RES     
   10539 HW1         45.0240    13.9480   -64.5710 HW1           1 RES     
   10540 HW2         43.6260    13.1050   -64.5790 HW2           1 RES     
   10541 OW           0.8540    28.8440   -60.2000 OW            1 RES     
   10542 HW1          0.0450    29.4200   -60.0860 HW1           1 RES     
   10543 HW2          1.6580    29.4220   -60.3390 HW2           1 RES     
   10544 OW          19.7390    -4.0280   -70.8000 OW            1 RES     
   10545 HW1         20.1190    -3.1040   -70.8330 HW1           1 RES     
   10546 HW2         18.7410    -3.9790   -70.7800 HW2           1 RES     
   10547 OW          39.0130    12.8100   -65.3630 OW            1 RES     
   10548 HW1         39.1960    13.7870   -65.2600 HW1           1 RES     
   10549 HW2         39.8670    12.2980   -65.2610 HW2           1 RES     
   10550 OW          18.9090    39.9770   -70.4610 OW            1 RES     
   10551 HW1         19.1170    39.0120   -70.6180 HW1           1 RES     
   10552 HW2         19.7410    40.4580   -70.1850 HW2           1 RES     
   10553 OW          11.3790     7.8270   -59.1120 OW            1 RES     
   10554 HW1         10.8820     8.4890   -58.5510 HW1           1 RES     
   10555 HW2         12.2740     7.6480   -58.7040 HW2           1 RES     
   10556 OW          20.2390    12.8530   -69.2550 OW            1 RES     
   10557 HW1         19.4600    13.4120   -68.9710 HW1           1 RES     
   10558 HW2         19.9300    11.9190   -69.4380 HW2           1 RES     
   10559 OW           6.5150     3.8140   -72.8420 OW            1 RES     
   10560 HW1          7.1260     4.1080   -72.1080 HW1           1 RES     
   10561 HW2          6.9730     3.9310   -73.7240 HW2           1 RES     
   10562 OW          10.4690     1.3280   -71.9650 OW            1 RES     
   10563 HW1         10.5340     2.2230   -71.5250 HW1           1 RES     
   10564 HW2          9.5090     1.1170   -72.1530 HW2           1 RES     
   10565 OW          43.9040    40.6700   -61.7990 OW            1 RES     
   10566 HW1         42.9130    40.6840   -61.9280 HW1           1 RES     
   10567 HW2         44.1580    41.3290   -61.0910 HW2           1 RES     
   10568 OW           0.8690    15.4240   -63.7790 OW            1 RES     
   10569 HW1          0.8830    14.4390   -63.6070 HW1           1 RES     
   10570 HW2          0.1320    15.6410   -64.4190 HW2           1 RES     
   10571 OW          11.6830    -3.2330   -62.9180 OW            1 RES     
   10572 HW1         12.4580    -3.8150   -63.1610 HW1           1 RES     
   10573 HW2         11.9680    -2.2750   -62.9280 HW2           1 RES     
   10574 OW          39.8990    10.5530   -62.8080 OW            1 RES     
   10575 HW1         39.6860    11.4230   -63.2510 HW1           1 RES     
   10576 HW2         39.5620     9.8000   -63.3730 HW2           1 RES     
   10577 OW          25.3860    28.3530   -61.3440 OW            1 RES     
   10578 HW1         25.8780    28.2050   -60.4860 HW1           1 RES     
   10579 HW2         26.0420    28.5330   -62.0780 HW2           1 RES     
   10580 OW          22.1860    29.1250   -68.6190 OW            1 RES     
   10581 HW1         22.2440    29.4970   -67.6940 HW1           1 RES     
   10582 HW2         21.9630    28.1510   -68.5750 HW2           1 RES     
   10583 OW          -4.2060    30.8410   -63.0270 OW            1 RES     
   10584 HW1         -3.6240    31.3020   -62.3590 HW1           1 RES     
   10585 HW2         -3.8010    30.9240   -63.9380 HW2           1 RES     
   10586 OW          31.0750    30.0960   -63.3300 OW            1 RES     
   10587 HW1         31.8710    29.7400   -63.8190 HW1           1 RES     
   10588 HW2         30.4690    29.3400   -63.0840 HW2           1 RES     
   10589 OW           1.6070    37.8710   -74.0220 OW            1 RES     
   10590 HW1          1.2890    36.9340   -74.1620 HW1           1 RES     
   10591 HW2          1.9740    37.9640   -73.0960 HW2           1 RES     
   10592 OW           6.0960    17.5260   -65.5660 OW            1 RES     
   10593 HW1          6.8920    17.1340   -66.0260 HW1           1 RES     
   10594 HW2          5.2660    17.0750   -65.8940 HW2           1 RES     
   10595 OW          21.1840    35.8340   -69.2810 OW            1 RES     
   10596 HW1         22.1250    35.5130   -69.3840 HW1           1 RES     
   10597 HW2         21.1880    36.7810   -68.9590 HW2           1 RES     
   10598 OW           1.0260     4.5270   -62.2110 OW            1 RES     
   10599 HW1          1.9860     4.7230   -62.4070 HW1           1 RES     
   10600 HW2          0.7450     5.0240   -61.3890 HW2           1 RES     
   10601 OW          11.1610     9.3820   -65.4400 OW            1 RES     
   10602 HW1         12.0800     9.7660   -65.5190 HW1           1 RES     
   10603 HW2         10.4930    10.1240   -65.3860 HW2           1 RES     
   10604 OW          25.1390    26.9290   -63.7150 OW            1 RES     
   10605 HW1         25.7580    27.6310   -64.0640 HW1           1 RES     
   10606 HW2         24.4860    27.3440   -63.0810 HW2           1 RES     
   10607 OW          19.7770    14.8830   -58.6170 OW            1 RES     
   10608 HW1         20.4960    14.1920   -58.5530 HW1           1 RES     
   10609 HW2         18.8870    14.4320   -58.6960 HW2           1 RES     
   10610 OW          13.2760    37.9250   -70.4670 OW            1 RES     
   10611 HW1         12.6780    37.1350   -70.3410 HW1           1 RES     
   10612 HW2         12.7280    38.7610   -70.4810 HW2           1 RES     
   10613 OW          11.0650    25.3410   -59.3150 OW            1 RES     
   10614 HW1         10.9150    26.2740   -58.9900 HW1           1 RES     
   10615 HW2         11.9080    24.9800   -58.9160 HW2           1 RES     
   10616 OW          -3.2090    30.4870   -58.6890 OW            1 RES     
   10617 HW1         -4.1620    30.1880   -58.7040 HW1           1 RES     
   10618 HW2         -3.1720    31.4870   -58.7090 HW2           1 RES     
   10619 OW          31.2640    14.6120   -72.6700 OW            1 RES     
   10620 HW1         32.0010    14.1220   -73.1350 HW1           1 RES     
   10621 HW2         31.1210    14.2160   -71.7620 HW2           1 RES     
   10622 OW          -1.1210    34.0480   -67.4950 OW            1 RES     
   10623 HW1         -1.3310    35.0240   -67.5340 HW1           1 RES     
   10624 HW2         -0.1350    33.9130   -67.5950 HW2           1 RES     
   10625 OW          24.0970    -2.9370   -66.4760 OW            1 RES     
   10626 HW1         24.1120    -3.9360   -66.5080 HW1           1 RES     
   10627 HW2         24.9270    -2.5760   -66.9010 HW2           1 RES     
   10628 OW          16.3410    31.5170   -66.8990 OW            1 RES     
   10629 HW1         16.7850    32.1140   -66.2320 HW1           1 RES     
   10630 HW2         16.8940    31.4770   -67.7320 HW2           1 RES     
   10631 OW          27.5720    43.0990   -69.6720 OW            1 RES     
   10632 HW1         27.1170    42.2780   -70.0140 HW1           1 RES     
   10633 HW2         28.3320    42.8360   -69.0770 HW2           1 RES     
   10634 OW          40.4890    36.5030   -61.1650 OW            1 RES     
   10635 HW1         40.4650    37.4980   -61.2490 HW1           1 RES     
   10636 HW2         41.3840    36.2180   -60.8190 HW2           1 RES     
   10637 OW          24.6860    32.9710   -61.0460 OW            1 RES     
   10638 HW1         25.5880    32.5430   -60.9930 HW1           1 RES     
   10639 HW2         24.6750    33.6360   -61.7930 HW2           1 RES     
   10640 OW          23.0250    13.4390   -69.2610 OW            1 RES     
   10641 HW1         23.7090    14.0330   -69.6840 HW1           1 RES     
   10642 HW2         22.6250    12.8430   -69.9580 HW2           1 RES     
   10643 OW           6.8820    13.7710   -70.1200 OW            1 RES     
   10644 HW1          5.9020    13.8750   -70.2820 HW1           1 RES     
   10645 HW2          7.0960    12.8060   -69.9680 HW2           1 RES     
   10646 OW          43.9980    42.2450   -73.5280 OW            1 RES     
   10647 HW1         44.7620    42.3570   -74.1620 HW1           1 RES     
   10648 HW2         43.4290    43.0670   -73.5410 HW2           1 RES     
   10649 OW          23.6180    33.0930   -69.2300 OW            1 RES     
   10650 HW1         23.7450    34.0660   -69.0390 HW1           1 RES     
   10651 HW2         24.5110    32.6550   -69.3380 HW2           1 RES     
   10652 OW          21.7380    13.7550   -71.9470 OW            1 RES     
   10653 HW1         22.4240    14.3640   -71.5500 HW1           1 RES     
   10654 HW2         22.1420    12.8530   -72.1040 HW2           1 RES     
   10655 OW          25.6660    -3.2760   -60.9890 OW            1 RES     
   10656 HW1         25.4040    -4.0540   -61.5600 HW1           1 RES     
   10657 HW2         25.5200    -2.4260   -61.4960 HW2           1 RES     
   10658 OW          20.0600    -3.1020   -67.2630 OW            1 RES     
   10659 HW1         20.6620    -3.3350   -68.0260 HW1           1 RES     
   10660 HW2         20.0210    -2.1080   -67.1590 HW2           1 RES     
   10661 OW          30.0780    22.0610   -65.9000 OW            1 RES     
   10662 HW1         29.5060    22.8240   -66.2000 HW1           1 RES     
   10663 HW2         29.6200    21.5740   -65.1550 HW2           1 RES     
   10664 OW          42.6000    31.6450   -59.9910 OW            1 RES     
   10665 HW1         43.3980    32.2430   -59.9170 HW1           1 RES     
   10666 HW2         42.8920    30.6900   -59.9280 HW2           1 RES     
   10667 OW          18.8320    26.2790   -66.4690 OW            1 RES     
   10668 HW1         19.6460    25.7020   -66.4140 HW1           1 RES     
   10669 HW2         18.0140    25.7040   -66.4540 HW2           1 RES     
   10670 OW          -2.7210    42.6500   -69.9820 OW            1 RES     
   10671 HW1         -1.7950    42.9720   -70.1770 HW1           1 RES     
   10672 HW2         -3.1420    43.2410   -69.2940 HW2           1 RES     
   10673 OW          37.8120    16.4370   -61.1100 OW            1 RES     
   10674 HW1         38.1780    17.3610   -61.2110 HW1           1 RES     
   10675 HW2         38.5280    15.7690   -61.3150 HW2           1 RES     
   10676 OW          19.5210    20.8510   -70.8520 OW            1 RES     
   10677 HW1         20.4630    20.5190   -70.8830 HW1           1 RES     
   10678 HW2         19.5170    21.8500   -70.8980 HW2           1 RES     
   10679 OW          10.6210    14.8940   -61.2450 OW            1 RES     
   10680 HW1         10.4040    15.8210   -61.5490 HW1           1 RES     
   10681 HW2         10.6530    14.8690   -60.2450 HW2           1 RES     
   10682 OW          36.0830    22.2850   -61.5610 OW            1 RES     
   10683 HW1         36.2520    22.3420   -62.5440 HW1           1 RES     
   10684 HW2         35.8820    21.3370   -61.3110 HW2           1 RES     
   10685 OW           2.0980     7.8040   -61.9030 OW            1 RES     
   10686 HW1          1.5960     7.0610   -61.4610 HW1           1 RES     
   10687 HW2          1.4520     8.4360   -62.3300 HW2           1 RES     
   10688 OW          42.9040     1.0860   -69.8080 OW            1 RES     
   10689 HW1         42.9840     2.0670   -69.9830 HW1           1 RES     
   10690 HW2         43.8170     0.6890   -69.7120 HW2           1 RES     
   10691 OW          -3.4870    26.0870   -71.2120 OW            1 RES     
   10692 HW1         -3.8720    26.1820   -72.1300 HW1           1 RES     
   10693 HW2         -3.0600    25.1870   -71.1210 HW2           1 RES     
   10694 OW          44.1670     8.1510   -67.7250 OW            1 RES     
   10695 HW1         44.8200     8.0300   -66.9790 HW1           1 RES     
   10696 HW2         43.7850     7.2630   -67.9810 HW2           1 RES     
   10697 OW          -6.1080    -0.6610   -63.8680 OW            1 RES     
   10698 HW1         -5.2950    -0.5730   -63.2920 HW1           1 RES     
   10699 HW2         -5.8490    -0.5560   -64.8290 HW2           1 RES     
   10700 OW          -3.8620    29.0430   -72.1910 OW            1 RES     
   10701 HW1         -3.2330    28.3190   -72.4710 HW1           1 RES     
   10702 HW2         -4.7780    28.6610   -72.0690 HW2           1 RES     
   10703 OW          15.0350    22.8480   -60.3280 OW            1 RES     
   10704 HW1         14.2200    22.2700   -60.3050 HW1           1 RES     
   10705 HW2         15.8520    22.2720   -60.3690 HW2           1 RES     
   10706 OW          38.0010    23.1020   -59.5040 OW            1 RES     
   10707 HW1         38.7890    22.5170   -59.3130 HW1           1 RES     
   10708 HW2         37.1980    22.5330   -59.6810 HW2           1 RES     
   10709 OW          14.1410     0.2230   -71.2890 OW            1 RES     
   10710 HW1         13.6140    -0.4910   -70.8290 HW1           1 RES     
   10711 HW2         13.9430     1.1080   -70.8680 HW2           1 RES     
   10712 OW          40.0470     7.6980   -62.2920 OW            1 RES     
   10713 HW1         40.6330     6.8880   -62.2860 HW1           1 RES     
   10714 HW2         39.0870     7.4160   -62.3010 HW2           1 RES     
   10715 OW          31.2750     9.5310   -71.6640 OW            1 RES     
   10716 HW1         31.5110     8.7460   -72.2350 HW1           1 RES     
   10717 HW2         31.1320    10.3340   -72.2420 HW2           1 RES     
   10718 OW          18.3540    -2.1000   -68.9530 OW            1 RES     
   10719 HW1         19.0650    -1.4560   -69.2330 HW1           1 RES     
   10720 HW2         17.6540    -2.1560   -69.6650 HW2           1 RES     
   10721 OW          21.8120    19.7280   -62.9110 OW            1 RES     
   10722 HW1         21.6060    20.2200   -62.0650 HW1           1 RES     
   10723 HW2         22.1840    20.3660   -63.5860 HW2           1 RES     
   10724 OW           5.0210    14.3520   -58.5550 OW            1 RES     
   10725 HW1          5.4640    15.2110   -58.8100 HW1           1 RES     
   10726 HW2          5.5440    13.5840   -58.9260 HW2           1 RES     
   10727 OW          35.7320    28.7360   -67.7740 OW            1 RES     
   10728 HW1         35.5280    29.1750   -68.6480 HW1           1 RES     
   10729 HW2         36.6950    28.4670   -67.7520 HW2           1 RES     
   10730 OW          14.1570    28.3230   -58.8640 OW            1 RES     
   10731 HW1         13.5050    27.6330   -58.5510 HW1           1 RES     
   10732 HW2         15.0090    27.8770   -59.1400 HW2           1 RES     
   10733 OW          13.0000    24.9180   -61.5810 OW            1 RES     
   10734 HW1         13.7940    24.4340   -61.2150 HW1           1 RES     
   10735 HW2         12.8030    24.5860   -62.5040 HW2           1 RES     
   10736 OW          27.3190    30.6860   -66.0910 OW            1 RES     
   10737 HW1         26.4990    30.6480   -65.5200 HW1           1 RES     
   10738 HW2         28.1270    30.5150   -65.5280 HW2           1 RES     
   10739 OW          34.7750    33.8770   -61.3890 OW            1 RES     
   10740 HW1         35.5470    34.4690   -61.6170 HW1           1 RES     
   10741 HW2         35.0210    33.2900   -60.6170 HW2           1 RES     
   10742 OW          36.7950    35.5720   -59.0900 OW            1 RES     
   10743 HW1         37.6750    35.1380   -59.2820 HW1           1 RES     
   10744 HW2         36.0660    35.0680   -59.5550 HW2           1 RES     
   10745 OW          45.1210    35.8340   -70.7220 OW            1 RES     
   10746 HW1         44.2390    35.5320   -71.0820 HW1           1 RES     
   10747 HW2         45.4040    35.2250   -69.9800 HW2           1 RES     
   10748 OW          10.6600    35.6580   -64.6520 OW            1 RES     
   10749 HW1         11.6220    35.8610   -64.8340 HW1           1 RES     
   10750 HW2         10.3560    34.9170   -65.2500 HW2           1 RES     
   10751 OW          11.1200    -4.3150   -68.4120 OW            1 RES     
   10752 HW1         10.6510    -3.4330   -68.4260 HW1           1 RES     
   10753 HW2         12.0440    -4.2070   -68.7800 HW2           1 RES     
   10754 OW          45.3590    11.6280   -70.3490 OW            1 RES     
   10755 HW1         45.4040    10.7260   -70.7780 HW1           1 RES     
   10756 HW2         44.4230    11.9750   -70.4000 HW2           1 RES     
   10757 OW          19.1990    35.9760   -59.6490 OW            1 RES     
   10758 HW1         19.8720    36.5420   -60.1230 HW1           1 RES     
   10759 HW2         19.6020    35.6070   -58.8120 HW2           1 RES     
   10760 OW          28.7880     5.0520   -63.2560 OW            1 RES     
   10761 HW1         28.7260     4.0670   -63.1020 HW1           1 RES     
   10762 HW2         29.6490     5.3960   -62.8780 HW2           1 RES     
   10763 OW          23.2460     2.2320   -73.1770 OW            1 RES     
   10764 HW1         24.1600     2.5450   -72.9220 HW1           1 RES     
   10765 HW2         23.2790     1.2610   -73.4130 HW2           1 RES     
   10766 OW          43.9290    31.0210   -71.6820 OW            1 RES     
   10767 HW1         42.9310    30.9690   -71.6660 HW1           1 RES     
   10768 HW2         44.3140    30.1950   -71.2700 HW2           1 RES     
   10769 OW           0.2360    42.1700   -72.9220 OW            1 RES     
   10770 HW1          0.8500    42.3150   -72.1460 HW1           1 RES     
   10771 HW2          0.7670    42.1500   -73.7690 HW2           1 RES     
   10772 OW          23.6130     5.1840   -70.0230 OW            1 RES     
   10773 HW1         23.8650     4.3460   -70.5060 HW1           1 RES     
   10774 HW2         23.9920     5.9740   -70.5050 HW2           1 RES     
   10775 OW          33.1170     5.3540   -70.5500 OW            1 RES     
   10776 HW1         33.1690     5.1190   -69.5800 HW1           1 RES     
   10777 HW2         32.1580     5.3900   -70.8330 HW2           1 RES     
   10778 OW           7.9730    36.4030   -61.8220 OW            1 RES     
   10779 HW1          7.6820    36.3090   -62.7730 HW1           1 RES     
   10780 HW2          7.2480    36.0730   -61.2170 HW2           1 RES     
   10781 OW          33.3690    23.7490   -60.5700 OW            1 RES     
   10782 HW1         32.4480    23.8080   -60.9530 HW1           1 RES     
   10783 HW2         33.9540    23.2210   -61.1860 HW2           1 RES     
   10784 OW           3.5530     8.9520   -69.7290 OW            1 RES     
   10785 HW1          3.2420     8.3220   -69.0180 HW1           1 RES     
   10786 HW2          3.9400     8.4310   -70.4900 HW2           1 RES     
   10787 OW          20.4320    14.4370   -64.6420 OW            1 RES     
   10788 HW1         21.4050    14.6420   -64.5410 HW1           1 RES     
   10789 HW2         20.3140    13.4610   -64.8250 HW2           1 RES     
   10790 OW          20.3390     6.2070   -61.0560 OW            1 RES     
   10791 HW1         19.6120     6.0380   -61.7200 HW1           1 RES     
   10792 HW2         20.3890     5.4420   -60.4140 HW2           1 RES     
   10793 OW           8.3320     4.1610   -62.4900 OW            1 RES     
   10794 HW1          8.6780     4.1230   -61.5530 HW1           1 RES     
   10795 HW2          8.3240     5.1100   -62.8050 HW2           1 RES     
   10796 OW          37.8330     5.0730   -59.2330 OW            1 RES     
   10797 HW1         38.0660     4.2800   -58.6700 HW1           1 RES     
   10798 HW2         37.2850     4.7780   -60.0160 HW2           1 RES     
   10799 OW          -2.2670    37.3260   -65.2630 OW            1 RES     
   10800 HW1         -1.2740    37.3930   -65.3490 HW1           1 RES     
   10801 HW2         -2.5780    36.4570   -65.6480 HW2           1 RES     
   10802 OW          15.5630    22.7580   -68.4770 OW            1 RES     
   10803 HW1         15.6460    21.7890   -68.2450 HW1           1 RES     
   10804 HW2         15.0850    22.8520   -69.3510 HW2           1 RES     
   10805 OW           4.4340    23.5710   -71.9360 OW            1 RES     
   10806 HW1          4.7390    23.1090   -71.1030 HW1           1 RES     
   10807 HW2          3.5080    23.2690   -72.1650 HW2           1 RES     
   10808 OW          18.7390     6.9570   -63.9820 OW            1 RES     
   10809 HW1         19.0150     7.5440   -63.2210 HW1           1 RES     
   10810 HW2         19.1480     6.0510   -63.8700 HW2           1 RES     
   10811 OW           4.0100    -3.2100   -59.9150 OW            1 RES     
   10812 HW1          3.7600    -4.1480   -60.1540 HW1           1 RES     
   10813 HW2          4.8990    -2.9890   -60.3170 HW2           1 RES     
   10814 OW          20.7190     8.2590   -66.2950 OW            1 RES     
   10815 HW1         20.8630     7.3030   -66.0410 HW1           1 RES     
   10816 HW2         19.8070     8.3650   -66.6920 HW2           1 RES     
   10817 OW          23.0000    34.9460   -71.6050 OW            1 RES     
   10818 HW1         22.5670    34.0460   -71.5580 HW1           1 RES     
   10819 HW2         22.2980    35.6570   -71.5720 HW2           1 RES     
   10820 OW          42.8560    26.2340   -69.7630 OW            1 RES     
   10821 HW1         41.9600    26.6730   -69.8220 HW1           1 RES     
   10822 HW2         43.2000    26.0530   -70.6850 HW2           1 RES     
   10823 OW          20.5860     3.1270   -66.2670 OW            1 RES     
   10824 HW1         21.1220     2.3480   -65.9420 HW1           1 RES     
   10825 HW2         21.1420     3.9570   -66.2230 HW2           1 RES     
   10826 OW          30.6180    24.9100   -74.1620 OW            1 RES     
   10827 HW1         31.3760    25.4220   -73.7610 HW1           1 RES     
   10828 HW2         29.7760    25.4440   -74.0840 HW2           1 RES     
   10829 OW           7.3930    40.1000   -62.5580 OW            1 RES     
   10830 HW1          8.2730    39.8340   -62.9520 HW1           1 RES     
   10831 HW2          7.3640    41.0940   -62.4500 HW2           1 RES     
   10832 OW          -5.2950     6.9660   -69.9310 OW            1 RES     
   10833 HW1         -5.3500     7.4660   -70.7940 HW1           1 RES     
   10834 HW2         -6.1070     6.3910   -69.8260 HW2           1 RES     
   10835 OW          38.5230    26.7730   -61.8490 OW            1 RES     
   10836 HW1         39.3800    26.2780   -61.9910 HW1           1 RES     
   10837 HW2         38.6720    27.7490   -62.0070 HW2           1 RES     
   10838 OW           4.8210    42.0750   -73.0010 OW            1 RES     
   10839 HW1          5.4440    42.8520   -72.9110 HW1           1 RES     
   10840 HW2          3.9520    42.2900   -72.5540 HW2           1 RES     
   10841 OW          13.3380    14.1470   -62.1140 OW            1 RES     
   10842 HW1         12.4430    13.7310   -62.2690 HW1           1 RES     
   10843 HW2         13.6520    13.9310   -61.1900 HW2           1 RES     
   10844 OW          -5.3590    10.3260   -62.0860 OW            1 RES     
   10845 HW1         -5.2820     9.7850   -61.2490 HW1           1 RES     
   10846 HW2         -4.6010    10.9770   -62.1330 HW2           1 RES     
   10847 OW          40.2320    36.6160   -73.2170 OW            1 RES     
   10848 HW1         39.4560    37.2320   -73.0870 HW1           1 RES     
   10849 HW2         40.2420    36.2870   -74.1610 HW2           1 RES     
   10850 OW          -1.0260    30.8660   -64.4070 OW            1 RES     
   10851 HW1         -1.3070    31.7820   -64.6920 HW1           1 RES     
   10852 HW2         -1.6460    30.5320   -63.6970 HW2           1 RES     
   10853 OW           3.4000    27.5600   -73.3490 OW            1 RES     
   10854 HW1          2.4920    27.2600   -73.6420 HW1           1 RES     
   10855 HW2          3.6110    28.4430   -73.7690 HW2           1 RES     
   10856 OW          44.7440    28.7440   -64.9200 OW            1 RES     
   10857 HW1         43.9830    28.5140   -65.5240 HW1           1 RES     
   10858 HW2         45.2660    29.5020   -65.3140 HW2           1 RES     
   10859 OW          16.6190    29.8950   -69.5250 OW            1 RES     
   10860 HW1         17.2280    30.4890   -70.0500 HW1           1 RES     
   10861 HW2         15.7620    29.7700   -70.0250 HW2           1 RES     
   10862 OW           7.4490    24.3000   -61.8500 OW            1 RES     
   10863 HW1          6.5930    24.8160   -61.8240 HW1           1 RES     
   10864 HW2          7.2470    23.3230   -61.9200 HW2           1 RES     
   10865 OW          23.1320     1.4440   -69.9930 OW            1 RES     
   10866 HW1         23.7850     1.7750   -70.6730 HW1           1 RES     
   10867 HW2         22.6260     2.2170   -69.6110 HW2           1 RES     
   10868 OW          -5.9030     6.1290   -74.0620 OW            1 RES     
   10869 HW1         -5.0970     5.6460   -73.7210 HW1           1 RES     
   10870 HW2         -5.8150     7.1060   -73.8660 HW2           1 RES     
   10871 OW          11.7070    39.0990   -67.8720 OW            1 RES     
   10872 HW1         11.9960    39.9950   -67.5360 HW1           1 RES     
   10873 HW2         12.3620    38.4040   -67.5740 HW2           1 RES     
   10874 OW          -1.6080    21.4560   -66.6960 OW            1 RES     
   10875 HW1         -1.6720    22.3680   -66.2920 HW1           1 RES     
   10876 HW2         -0.7630    21.3850   -67.2280 HW2           1 RES     
   10877 OW          -4.4030    14.4650   -63.6220 OW            1 RES     
   10878 HW1         -3.6290    14.8830   -63.1460 HW1           1 RES     
   10879 HW2         -4.9150    13.8890   -62.9850 HW2           1 RES     
   10880 OW          11.5520    39.9690   -65.0350 OW            1 RES     
   10881 HW1         12.3390    39.3910   -65.2440 HW1           1 RES     
   10882 HW2         11.6290    40.8320   -65.5340 HW2           1 RES     
   10883 OW          11.0190    18.6430   -62.2420 OW            1 RES     
   10884 HW1         11.7950    18.5910   -61.6140 HW1           1 RES     
   10885 HW2         10.3230    17.9790   -61.9680 HW2           1 RES     
   10886 OW           7.6220    10.6840   -62.1050 OW            1 RES     
   10887 HW1          7.2120    10.6270   -61.1950 HW1           1 RES     
   10888 HW2          6.9130    10.5590   -62.7990 HW2           1 RES     
   10889 OW          20.6200    -4.1720   -60.9810 OW            1 RES     
   10890 HW1         19.6210    -4.1460   -60.9650 HW1           1 RES     
   10891 HW2         20.9770    -3.2450   -61.0920 HW2           1 RES     
   10892 OW           3.8890     0.0880   -72.6240 OW            1 RES     
   10893 HW1          4.2700     0.8250   -72.0670 HW1           1 RES     
   10894 HW2          4.6330    -0.4350   -73.0410 HW2           1 RES     
   10895 OW           8.8740     2.3700   -60.2380 OW            1 RES     
   10896 HW1          9.5830     2.9880   -59.9000 HW1           1 RES     
   10897 HW2          9.1870     1.4240   -60.1530 HW2           1 RES     
   10898 OW          26.6280     9.1600   -62.2510 OW            1 RES     
   10899 HW1         26.4000     9.9450   -62.8270 HW1           1 RES     
   10900 HW2         27.1470     9.4700   -61.4550 HW2           1 RES     
   10901 OW          13.2250     1.7810   -63.7980 OW            1 RES     
   10902 HW1         13.9190     1.1840   -63.3970 HW1           1 RES     
   10903 HW2         12.4940     1.2240   -64.1940 HW2           1 RES     
   10904 OW           4.8870    15.2620   -60.9330 OW            1 RES     
   10905 HW1          5.3170    16.1120   -61.2330 HW1           1 RES     
   10906 HW2          5.5700    14.5310   -60.9120 HW2           1 RES     
   10907 OW          23.3940    20.6920   -58.7730 OW            1 RES     
   10908 HW1         22.6820    20.0250   -58.9900 HW1           1 RES     
   10909 HW2         24.2600    20.2170   -58.6190 HW2           1 RES     
   10910 OW          11.4850    34.3310   -59.8450 OW            1 RES     
   10911 HW1         11.3730    33.9910   -60.7780 HW1           1 RES     
   10912 HW2         11.2520    35.3030   -59.8140 HW2           1 RES     
   10913 OW          11.0850    17.8520   -66.4470 OW            1 RES     
   10914 HW1         11.0900    18.7960   -66.7770 HW1           1 RES     
   10915 HW2         10.5870    17.2750   -67.0940 HW2           1 RES     
   10916 OW          13.9290    20.1570   -70.2090 OW            1 RES     
   10917 HW1         14.7340    20.7240   -70.0420 HW1           1 RES     
   10918 HW2         14.0480    19.2690   -69.7660 HW2           1 RES     
   10919 OW          29.0710    35.4390   -63.9610 OW            1 RES     
   10920 HW1         28.2760    34.8920   -64.2240 HW1           1 RES     
   10921 HW2         28.9660    36.3700   -64.3130 HW2           1 RES     
   10922 OW          -4.2600    17.8340   -65.9310 OW            1 RES     
   10923 HW1         -3.8590    17.2340   -66.6220 HW1           1 RES     
   10924 HW2         -3.8460    18.7410   -65.9950 HW2           1 RES     
   10925 OW           6.1910    38.5870   -59.0120 OW            1 RES     
   10926 HW1          6.4260    37.6370   -58.8100 HW1           1 RES     
   10927 HW2          6.8960    39.1910   -58.6410 HW2           1 RES     
   10928 OW          39.4340    31.6880   -64.8650 OW            1 RES     
   10929 HW1         38.8870    32.5220   -64.9410 HW1           1 RES     
   10930 HW2         40.3040    31.8160   -65.3420 HW2           1 RES     
   10931 OW          41.2850    27.1000   -63.6420 OW            1 RES     
   10932 HW1         41.2680    26.2450   -63.1250 HW1           1 RES     
   10933 HW2         40.3490    27.3930   -63.8340 HW2           1 RES     
   10934 OW           7.1640    17.5660   -63.3100 OW            1 RES     
   10935 HW1          7.6440    18.4340   -63.1810 HW1           1 RES     
   10936 HW2          6.1810    17.7350   -63.3760 HW2           1 RES     
   10937 OW          15.3080    23.9790   -63.3560 OW            1 RES     
   10938 HW1         15.8500    23.1640   -63.1540 HW1           1 RES     
   10939 HW2         14.4150    23.7050   -63.7150 HW2           1 RES     
   10940 OW          36.2330     8.1900   -63.0710 OW            1 RES     
   10941 HW1         35.6920     7.5970   -63.6670 HW1           1 RES     
   10942 HW2         36.4380     9.0440   -63.5490 HW2           1 RES     
   10943 OW          28.1610    35.9110   -70.4070 OW            1 RES     
   10944 HW1         27.3160    36.3480   -70.7120 HW1           1 RES     
   10945 HW2         28.5640    36.4460   -69.6640 HW2           1 RES     
   10946 OW          16.2460    20.6240   -62.2280 OW            1 RES     
   10947 HW1         15.3120    20.9690   -62.3180 HW1           1 RES     
   10948 HW2         16.8800    21.3940   -62.1490 HW2           1 RES     
   10949 OW          12.5300    24.0730   -65.2180 OW            1 RES     
   10950 HW1         12.0140    23.9170   -66.0600 HW1           1 RES     
   10951 HW2         12.4630    23.2660   -64.6300 HW2           1 RES     
   10952 OW          34.6250    34.4510   -71.2160 OW            1 RES     
   10953 HW1         35.5100    34.4350   -71.6800 HW1           1 RES     
   10954 HW2         34.7260    34.0840   -70.2910 HW2           1 RES     
   10955 OW          42.7130    12.6440   -74.1290 OW            1 RES     
   10956 HW1         43.2180    11.8100   -73.9140 HW1           1 RES     
   10957 HW2         41.7330    12.4430   -74.1600 HW2           1 RES     
   10958 OW          19.7200    10.4480   -64.7530 OW            1 RES     
   10959 HW1         20.2530    11.2650   -64.9700 HW1           1 RES     
   10960 HW2         20.1380     9.9720   -63.9790 HW2           1 RES     
   10961 OW          -3.1010    20.7140   -61.9160 OW            1 RES     
   10962 HW1         -3.9770    20.8260   -61.4480 HW1           1 RES     
   10963 HW2         -2.7790    21.6030   -62.2400 HW2           1 RES     
   10964 OW          26.4350    -1.3860   -72.2340 OW            1 RES     
   10965 HW1         25.4410    -1.2960   -72.1880 HW1           1 RES     
   10966 HW2         26.7970    -0.7470   -72.9130 HW2           1 RES     
   10967 OW          34.4380     7.9630   -71.4090 OW            1 RES     
   10968 HW1         35.3950     7.8870   -71.1310 HW1           1 RES     
   10969 HW2         33.8560     7.5150   -70.7300 HW2           1 RES     
   10970 OW          -3.4840    39.5630   -70.7830 OW            1 RES     
   10971 HW1         -3.8970    38.8530   -71.3520 HW1           1 RES     
   10972 HW2         -3.9320    40.4380   -70.9630 HW2           1 RES     
   10973 OW          23.3860    40.5660   -73.3400 OW            1 RES     
   10974 HW1         22.8230    40.4650   -74.1590 HW1           1 RES     
   10975 HW2         23.8670    39.7080   -73.1580 HW2           1 RES     
   10976 OW          36.9780    41.4840   -72.0210 OW            1 RES     
   10977 HW1         36.4780    40.8880   -72.6490 HW1           1 RES     
   10978 HW2         37.6010    42.0690   -72.5400 HW2           1 RES     
   10979 OW          34.7030    24.9710   -71.8850 OW            1 RES     
   10980 HW1         34.4000    24.4820   -72.7020 HW1           1 RES     
   10981 HW2         34.2340    24.6020   -71.0820 HW2           1 RES     
   10982 OW          19.1010    19.2750   -64.6520 OW            1 RES     
   10983 HW1         19.6670    18.4730   -64.8410 HW1           1 RES     
   10984 HW2         19.6870    20.0740   -64.5200 HW2           1 RES     
   10985 OW          -0.0440    -1.0500   -59.3340 OW            1 RES     
   10986 HW1          0.2510    -1.6100   -58.5610 HW1           1 RES     
   10987 HW2         -1.0220    -0.8580   -59.2540 HW2           1 RES     
   10988 OW          -5.3610     9.2570   -73.9630 OW            1 RES     
   10989 HW1         -4.5160     9.7510   -74.1620 HW1           1 RES     
   10990 HW2         -5.5120     9.2380   -72.9740 HW2           1 RES     
   10991 OW          34.8530    22.0310   -72.4050 OW            1 RES     
   10992 HW1         34.3310    22.0690   -73.2560 HW1           1 RES     
   10993 HW2         34.5240    21.2700   -71.8460 HW2           1 RES     
   10994 OW          17.9450    28.5090   -67.5290 OW            1 RES     
   10995 HW1         17.6940    29.4590   -67.3430 HW1           1 RES     
   10996 HW2         17.1710    27.9120   -67.3150 HW2           1 RES     
   10997 OW          16.2900     0.6810   -59.3160 OW            1 RES     
   10998 HW1         16.2960     1.1950   -60.1740 HW1           1 RES     
   10999 HW2         16.4500     1.3060   -58.5520 HW2           1 RES     
   11000 OW          13.6140     8.4290   -63.1360 OW            1 RES     
   11001 HW1         12.9150     8.9140   -63.6590 HW1           1 RES     
   11002 HW2         13.5680     7.4510   -63.3430 HW2           1 RES     
   11003 OW           6.6030     8.6740   -68.0700 OW            1 RES     
   11004 HW1          7.0470     7.8070   -68.2950 HW1           1 RES     
   11005 HW2          7.2070     9.4320   -68.3140 HW2           1 RES     
   11006 OW          -1.5660     7.7420   -61.7760 OW            1 RES     
   11007 HW1         -0.7180     8.2120   -62.0170 HW1           1 RES     
   11008 HW2         -1.4310     7.2200   -60.9340 HW2           1 RES     
   11009 OW           2.9570    33.6250   -72.0000 OW            1 RES     
   11010 HW1          2.7360    33.9910   -71.0960 HW1           1 RES     
   11011 HW2          2.7310    34.3030   -72.6990 HW2           1 RES     
   11012 OW          41.0090    43.1720   -68.1730 OW            1 RES     
   11013 HW1         41.0070    42.2590   -67.7660 HW1           1 RES     
   11014 HW2         40.2090    43.2760   -68.7640 HW2           1 RES     
   11015 OW          19.4100    31.0890   -63.4350 OW            1 RES     
   11016 HW1         19.0170    30.6440   -62.6310 HW1           1 RES     
   11017 HW2         20.3800    31.2710   -63.2750 HW2           1 RES     
   11018 OW          36.5490    32.5190   -58.5960 OW            1 RES     
   11019 HW1         35.7620    33.1330   -58.5510 HW1           1 RES     
   11020 HW2         37.3910    33.0570   -58.6280 HW2           1 RES     
   11021 OW          14.7710    12.3440   -67.0050 OW            1 RES     
   11022 HW1         14.8680    13.2840   -66.6780 HW1           1 RES     
   11023 HW2         14.3500    12.3480   -67.9120 HW2           1 RES     
   11024 OW           2.3210     3.2260   -65.4000 OW            1 RES     
   11025 HW1          1.4690     3.0850   -65.9020 HW1           1 RES     
   11026 HW2          2.9790     3.7000   -65.9860 HW2           1 RES     
   11027 OW          32.8580    23.8500   -68.1030 OW            1 RES     
   11028 HW1         32.1360    24.4840   -68.3770 HW1           1 RES     
   11029 HW2         33.4490    23.6580   -68.8870 HW2           1 RES     
   11030 OW          -1.8710    19.5630   -59.7370 OW            1 RES     
   11031 HW1         -2.3340    18.6770   -59.7190 HW1           1 RES     
   11032 HW2         -2.5520    20.2960   -59.7000 HW2           1 RES     
   11033 OW          -3.5770    42.2790   -63.9220 OW            1 RES     
   11034 HW1         -3.6000    43.2760   -63.9940 HW1           1 RES     
   11035 HW2         -4.4870    41.9410   -63.6820 HW2           1 RES     
   11036 OW          26.5460    28.5720   -66.2660 OW            1 RES     
   11037 HW1         26.6490    27.5780   -66.2680 HW1           1 RES     
   11038 HW2         25.6010    28.8110   -66.4880 HW2           1 RES     
   11039 OW          35.6770    31.7350   -71.9060 OW            1 RES     
   11040 HW1         36.3980    32.4080   -71.7430 HW1           1 RES     
   11041 HW2         35.2920    31.8720   -72.8190 HW2           1 RES     
   11042 OW          43.3250    18.2100   -65.8550 OW            1 RES     
   11043 HW1         43.1390    17.9820   -66.8100 HW1           1 RES     
   11044 HW2         44.0320    17.5990   -65.4970 HW2           1 RES     
   11045 OW           2.2450     7.1230   -66.9600 OW            1 RES     
   11046 HW1          1.4840     6.5160   -67.1890 HW1           1 RES     
   11047 HW2          1.9030     7.9040   -66.4380 HW2           1 RES     
   11048 OW          29.5870    22.9500   -62.3400 OW            1 RES     
   11049 HW1         29.5140    22.2740   -63.0720 HW1           1 RES     
   11050 HW2         28.9230    23.6820   -62.4950 HW2           1 RES     
   11051 OW           0.3100     2.3380   -63.0420 OW            1 RES     
   11052 HW1          0.9910     2.2640   -62.3150 HW1           1 RES     
   11053 HW2          0.7720     2.4130   -63.9260 HW2           1 RES     
   11054 OW          21.3330    -0.5190   -59.3800 OW            1 RES     
   11055 HW1         20.5590    -0.5140   -58.7470 HW1           1 RES     
   11056 HW2         21.3760    -1.4020   -59.8480 HW2           1 RES     
   11057 OW          20.4220    39.3420   -59.9800 OW            1 RES     
   11058 HW1         19.4990    39.5020   -59.6300 HW1           1 RES     
   11059 HW2         20.7820    38.4920   -59.5950 HW2           1 RES     
   11060 OW          39.5890    25.0250   -70.7000 OW            1 RES     
   11061 HW1         40.5610    25.2510   -70.7500 HW1           1 RES     
   11062 HW2         39.0520    25.8670   -70.6480 HW2           1 RES     
   11063 OW          34.3910     3.3110   -59.9960 OW            1 RES     
   11064 HW1         34.7580     3.7010   -60.8400 HW1           1 RES     
   11065 HW2         34.6380     3.8970   -59.2230 HW2           1 RES     
   11066 OW          11.5440    42.6300   -62.4700 OW            1 RES     
   11067 HW1         10.8690    43.2740   -62.8270 HW1           1 RES     
   11068 HW2         11.8960    42.9640   -61.5960 HW2           1 RES     
   11069 OW          26.0530    22.4660   -59.6860 OW            1 RES     
   11070 HW1         26.3950    22.5780   -58.7540 HW1           1 RES     
   11071 HW2         25.2430    21.8790   -59.6760 HW2           1 RES     
   11072 OW           7.7230     0.7750   -63.8560 OW            1 RES     
   11073 HW1          7.4870     0.7310   -62.8860 HW1           1 RES     
   11074 HW2          7.2910     0.0140   -64.3400 HW2           1 RES     
   11075 OW          14.4180    13.8440   -64.0870 OW            1 RES     
   11076 HW1         15.0120    13.1430   -64.4810 HW1           1 RES     
   11077 HW2         14.8820    14.7290   -64.1150 HW2           1 RES     
   11078 OW          19.2740    15.6070   -71.9460 OW            1 RES     
   11079 HW1         19.1760    15.7040   -70.9570 HW1           1 RES     
   11080 HW2         20.1550    15.9820   -72.2330 HW2           1 RES     
   11081 OW          11.0040    27.4800   -72.2560 OW            1 RES     
   11082 HW1         10.4050    27.0890   -71.5580 HW1           1 RES     
   11083 HW2         10.9650    26.9170   -73.0820 HW2           1 RES     
   11084 OW           1.1950     9.9570   -66.0620 OW            1 RES     
   11085 HW1          1.2740     9.9210   -67.0580 HW1           1 RES     
   11086 HW2          1.9900    10.4300   -65.6820 HW2           1 RES     
   11087 OW          30.7850    42.6630   -63.2340 OW            1 RES     
   11088 HW1         31.6860    42.7920   -63.6480 HW1           1 RES     
   11089 HW2         30.5350    41.6960   -63.2740 HW2           1 RES     
   11090 OW          37.7140    23.5280   -67.1510 OW            1 RES     
   11091 HW1         38.2280    24.3120   -67.4970 HW1           1 RES     
   11092 HW2         36.9410    23.3420   -67.7580 HW2           1 RES     
   11093 OW          42.7140    28.1260   -67.7110 OW            1 RES     
   11094 HW1         42.2080    27.2710   -67.6080 HW1           1 RES     
   11095 HW2         42.9870    28.2410   -68.6660 HW2           1 RES     
   11096 OW          40.7910    25.7050   -68.2290 OW            1 RES     
   11097 HW1         40.2140    26.5180   -68.1580 HW1           1 RES     
   11098 HW2         40.2160    24.8880   -68.2450 HW2           1 RES     
   11099 OW          42.7350    -2.2970   -71.8300 OW            1 RES     
   11100 HW1         42.8150    -2.7690   -70.9520 HW1           1 RES     
   11101 HW2         42.2640    -2.8890   -72.4850 HW2           1 RES     
   11102 OW           4.9370     9.3760   -63.0790 OW            1 RES     
   11103 HW1          4.2980    10.0950   -63.3490 HW1           1 RES     
   11104 HW2          4.4270     8.5540   -62.8270 HW2           1 RES     
   11105 OW          22.8250    27.5080   -73.3180 OW            1 RES     
   11106 HW1         22.4550    26.8220   -73.9440 HW1           1 RES     
   11107 HW2         23.2370    27.0520   -72.5290 HW2           1 RES     
   11108 OW          23.8390    41.3390   -67.6710 OW            1 RES     
   11109 HW1         23.1110    41.8340   -67.1980 HW1           1 RES     
   11110 HW2         24.6950    41.8510   -67.5970 HW2           1 RES     
   11111 OW          12.0530     3.8680   -71.4160 OW            1 RES     
   11112 HW1         12.6130     3.4470   -70.7030 HW1           1 RES     
   11113 HW2         12.4380     3.6540   -72.3140 HW2           1 RES     
   11114 OW          11.8130    34.9150   -66.9180 OW            1 RES     
   11115 HW1         11.0930    35.5340   -67.2290 HW1           1 RES     
   11116 HW2         12.6460    35.4370   -66.7340 HW2           1 RES     
   11117 OW          33.0310    27.3320   -68.6400 OW            1 RES     
   11118 HW1         33.9250    27.4810   -68.2190 HW1           1 RES     
   11119 HW2         32.9990    26.4170   -69.0430 HW2           1 RES     
   11120 OW          12.9210    29.6850   -72.0580 OW            1 RES     
   11121 HW1         13.9050    29.8520   -72.1190 HW1           1 RES     
   11122 HW2         12.4310    30.5540   -72.1150 HW2           1 RES     
   11123 OW           3.9640    42.4580   -64.1300 OW            1 RES     
   11124 HW1          4.2030    41.6970   -64.7320 HW1           1 RES     
   11125 HW2          4.7420    42.6740   -63.5400 HW2           1 RES     
   11126 OW          20.9310     9.1660   -59.5470 OW            1 RES     
   11127 HW1         21.6820     8.5080   -59.5690 HW1           1 RES     
   11128 HW2         20.0600     8.6770   -59.4930 HW2           1 RES     
   11129 OW          39.4460    -3.9110   -62.2770 OW            1 RES     
   11130 HW1         40.4060    -3.9580   -62.0050 HW1           1 RES     
   11131 HW2         39.2360    -2.9910   -62.6060 HW2           1 RES     
   11132 OW          24.8150    22.0560   -63.1960 OW            1 RES     
   11133 HW1         25.4300    22.4280   -62.5020 HW1           1 RES     
   11134 HW2         23.9040    21.9330   -62.8040 HW2           1 RES     
   11135 OW          16.5390     5.5430   -70.7150 OW            1 RES     
   11136 HW1         15.9770     4.9370   -70.1530 HW1           1 RES     
   11137 HW2         16.7290     5.1040   -71.5930 HW2           1 RES     
   11138 OW          -4.7040    -3.8470   -69.3200 OW            1 RES     
   11139 HW1         -3.9550    -4.3170   -68.8540 HW1           1 RES     
   11140 HW2         -4.4470    -2.8960   -69.4890 HW2           1 RES     
   11141 OW          27.9630    11.3490   -72.3620 OW            1 RES     
   11142 HW1         28.9220    11.0760   -72.4310 HW1           1 RES     
   11143 HW2         27.8960    12.3460   -72.4070 HW2           1 RES     
   11144 OW          16.6340     7.9900   -60.3470 OW            1 RES     
   11145 HW1         16.8590     8.9010   -60.6900 HW1           1 RES     
   11146 HW2         15.6410     7.9000   -60.2660 HW2           1 RES     
   11147 OW          -4.7570    14.1330   -68.2720 OW            1 RES     
   11148 HW1         -4.3190    13.2810   -67.9860 HW1           1 RES     
   11149 HW2         -5.5230    13.9260   -68.8800 HW2           1 RES     
   11150 OW          33.1040    20.7020   -67.4830 OW            1 RES     
   11151 HW1         33.6310    20.3370   -68.2490 HW1           1 RES     
   11152 HW2         32.9270    21.6750   -67.6330 HW2           1 RES     
   11153 OW          24.7660     9.6630   -71.1860 OW            1 RES     
   11154 HW1         25.7030     9.5140   -70.8720 HW1           1 RES     
   11155 HW2         24.5250     8.9670   -71.8620 HW2           1 RES     
   11156 OW           3.4940    15.5750   -69.1560 OW            1 RES     
   11157 HW1          2.6980    16.1640   -69.0200 HW1           1 RES     
   11158 HW2          3.2110    14.6170   -69.1120 HW2           1 RES     
   11159 OW          25.5400    39.1250   -67.4280 OW            1 RES     
   11160 HW1         24.5470    39.2370   -67.3960 HW1           1 RES     
   11161 HW2         25.7660    38.1510   -67.4160 HW2           1 RES     
   11162 OW          -1.3150    -1.7830   -64.6150 OW            1 RES     
   11163 HW1         -1.1060    -0.8300   -64.8310 HW1           1 RES     
   11164 HW2         -2.2370    -1.8450   -64.2320 HW2           1 RES     
   11165 OW           9.6610    34.2560   -69.1360 OW            1 RES     
   11166 HW1         10.0030    35.1950   -69.1100 HW1           1 RES     
   11167 HW2          8.7380    34.2260   -68.7530 HW2           1 RES     
   11168 OW          13.4840    26.8330   -64.5130 OW            1 RES     
   11169 HW1         12.7920    26.3650   -65.0630 HW1           1 RES     
   11170 HW2         13.3590    26.5980   -63.5490 HW2           1 RES     
   11171 OW          34.2690    36.8130   -63.7560 OW            1 RES     
   11172 HW1         34.7380    37.6780   -63.5840 HW1           1 RES     
   11173 HW2         33.2970    36.9850   -63.9150 HW2           1 RES     
   11174 OW          41.8750     3.3960   -62.2510 OW            1 RES     
   11175 HW1         42.1530     2.5580   -62.7200 HW1           1 RES     
   11176 HW2         40.9570     3.6570   -62.5510 HW2           1 RES     
   11177 OW          27.4360    14.8540   -64.4470 OW            1 RES     
   11178 HW1         27.9830    15.6580   -64.2170 HW1           1 RES     
   11179 HW2         26.4760    15.0290   -64.2240 HW2           1 RES     
   11180 OW          -5.6780     1.0740   -67.6470 OW            1 RES     
   11181 HW1         -6.1080     1.9650   -67.5030 HW1           1 RES     
   11182 HW2         -4.6840     1.1840   -67.6740 HW2           1 RES     
   11183 OW          39.0840    40.3130   -68.0950 OW            1 RES     
   11184 HW1         39.9770    40.0190   -68.4350 HW1           1 RES     
   11185 HW2         39.0450    40.1840   -67.1040 HW2           1 RES     
   11186 OW           2.5340    37.9910   -67.4410 OW            1 RES     
   11187 HW1          3.2360    37.6840   -66.7990 HW1           1 RES     
   11188 HW2          2.7650    38.9040   -67.7770 HW2           1 RES     
   11189 OW          40.1860     8.1710   -70.7800 OW            1 RES     
   11190 HW1         40.2470     7.2090   -70.5160 HW1           1 RES     
   11191 HW2         40.7830     8.3410   -71.5640 HW2           1 RES     
   11192 OW          28.6600     6.6220   -66.0860 OW            1 RES     
   11193 HW1         27.7680     6.1830   -65.9830 HW1           1 RES     
   11194 HW2         28.5330     7.6010   -66.2490 HW2           1 RES     
   11195 OW          34.2790    16.9790   -66.7250 OW            1 RES     
   11196 HW1         33.7160    16.2350   -66.3670 HW1           1 RES     
   11197 HW2         35.1730    16.6210   -66.9950 HW2           1 RES     
   11198 OW          23.1860    40.9530   -60.4810 OW            1 RES     
   11199 HW1         23.0230    40.1350   -59.9300 HW1           1 RES     
   11200 HW2         23.4490    41.7110   -59.8840 HW2           1 RES     
   11201 OW          -6.1020    26.2490   -64.7750 OW            1 RES     
   11202 HW1         -5.5330    26.6680   -64.0700 HW1           1 RES     
   11203 HW2         -5.8640    26.6310   -65.6680 HW2           1 RES     
   11204 OW          43.1170    15.1980   -72.7300 OW            1 RES     
   11205 HW1         42.5360    14.3850   -72.7280 HW1           1 RES     
   11206 HW2         44.0560    14.9380   -72.9520 HW2           1 RES     
   11207 OW          41.9670    12.4820   -65.8900 OW            1 RES     
   11208 HW1         42.5330    12.9740   -66.5500 HW1           1 RES     
   11209 HW2         42.4080    11.6170   -65.6510 HW2           1 RES     
   11210 OW          13.2030    29.5440   -62.3720 OW            1 RES     
   11211 HW1         14.0770    29.8980   -62.7020 HW1           1 RES     
   11212 HW2         12.4550    29.9780   -62.8740 HW2           1 RES     
   11213 OW          40.0960    16.5000   -66.1620 OW            1 RES     
   11214 HW1         40.1590    16.1760   -65.2190 HW1           1 RES     
   11215 HW2         40.9590    16.9320   -66.4250 HW2           1 RES     
   11216 OW          40.5660    12.3220   -68.8380 OW            1 RES     
   11217 HW1         39.9600    12.4270   -69.6260 HW1           1 RES     
   11218 HW2         41.3660    11.7840   -69.1010 HW2           1 RES     
   11219 OW          21.0330    28.7980   -63.1120 OW            1 RES     
   11220 HW1         20.0750    28.7750   -63.3940 HW1           1 RES     
   11221 HW2         21.6170    28.5780   -63.8940 HW2           1 RES     
   11222 OW           6.8780    14.6810   -65.9300 OW            1 RES     
   11223 HW1          6.4390    14.7590   -66.8240 HW1           1 RES     
   11224 HW2          6.3470    14.0630   -65.3500 HW2           1 RES     
   11225 OW          24.0270    35.2630   -63.1520 OW            1 RES     
   11226 HW1         24.1730    36.0630   -62.5710 HW1           1 RES     
   11227 HW2         24.4270    35.4290   -64.0540 HW2           1 RES     
   11228 OW           5.2730     0.1890   -60.7100 OW            1 RES     
   11229 HW1          4.4630    -0.3900   -60.7960 HW1           1 RES     
   11230 HW2          5.0110     1.1480   -60.8220 HW2           1 RES     
   11231 OW          40.0430     5.6430   -72.3060 OW            1 RES     
   11232 HW1         39.2370     6.2310   -72.2420 HW1           1 RES     
   11233 HW2         40.8640     6.2100   -72.3780 HW2           1 RES     
   11234 OW          11.2900     4.1330   -63.4200 OW            1 RES     
   11235 HW1         10.3820     4.5510   -63.3820 HW1           1 RES     
   11236 HW2         11.9830     4.8480   -63.5160 HW2           1 RES     
   11237 OW           3.4440    31.0900   -61.5090 OW            1 RES     
   11238 HW1          4.2400    30.9560   -60.9200 HW1           1 RES     
   11239 HW2          3.1120    32.0290   -61.4140 HW2           1 RES     
   11240 OW          35.9880    21.5520   -70.0640 OW            1 RES     
   11241 HW1         35.1690    21.1120   -69.6970 HW1           1 RES     
   11242 HW2         36.6090    21.7810   -69.3140 HW2           1 RES     
   11243 OW          -5.6240    26.8960   -70.0590 OW            1 RES     
   11244 HW1         -6.1080    27.7330   -70.3120 HW1           1 RES     
   11245 HW2         -5.6840    26.2360   -70.8090 HW2           1 RES     
   11246 OW          16.0660    -3.5270   -64.7540 OW            1 RES     
   11247 HW1         15.2930    -4.1540   -64.8470 HW1           1 RES     
   11248 HW2         16.9160    -4.0510   -64.7030 HW2           1 RES     
   11249 OW          37.9820     1.5110   -65.2560 OW            1 RES     
   11250 HW1         38.9320     1.6330   -65.5420 HW1           1 RES     
   11251 HW2         37.8170     0.5470   -65.0470 HW2           1 RES     
   11252 OW          35.2520     2.5160   -67.6800 OW            1 RES     
   11253 HW1         36.1620     2.1190   -67.7970 HW1           1 RES     
   11254 HW2         35.1110     3.2340   -68.3630 HW2           1 RES     
   11255 OW          44.4910    17.2820   -74.1110 OW            1 RES     
   11256 HW1         43.5320    17.0050   -74.0750 HW1           1 RES     
   11257 HW2         45.0720    16.4690   -74.1620 HW2           1 RES     
   11258 OW           3.6250    11.0270   -67.3580 OW            1 RES     
   11259 HW1          4.0120    10.6410   -66.5210 HW1           1 RES     
   11260 HW2          3.3050    10.2870   -67.9500 HW2           1 RES     
   11261 OW           8.6770    -3.6580   -70.8690 OW            1 RES     
   11262 HW1          7.9650    -3.0860   -70.4630 HW1           1 RES     
   11263 HW2          9.1850    -4.1240   -70.1440 HW2           1 RES     
   11264 OW          19.1830    36.5620   -67.0080 OW            1 RES     
   11265 HW1         20.1400    36.6960   -66.7520 HW1           1 RES     
   11266 HW2         18.7680    37.4460   -67.2240 HW2           1 RES     
   11267 OW          -2.6240    35.4340   -62.8680 OW            1 RES     
   11268 HW1         -3.2960    36.0640   -62.4790 HW1           1 RES     
   11269 HW2         -1.7470    35.9030   -62.9690 HW2           1 RES     
   11270 OW          40.1850     7.6410   -66.5600 OW            1 RES     
   11271 HW1         40.0940     7.3790   -65.6000 HW1           1 RES     
   11272 HW2         40.2900     6.8200   -67.1210 HW2           1 RES     
   11273 OW          11.1520    39.7850   -60.9840 OW            1 RES     
   11274 HW1         10.6040    40.5360   -61.3520 HW1           1 RES     
   11275 HW2         11.8410    39.5130   -61.6560 HW2           1 RES     
   11276 OW          32.7480     4.6740   -72.8590 OW            1 RES     
   11277 HW1         32.8420     5.5050   -73.4060 HW1           1 RES     
   11278 HW2         31.8570     4.2560   -73.0360 HW2           1 RES     
   11279 OW          34.2380    -3.9650   -72.9370 OW            1 RES     
   11280 HW1         33.9530    -4.3170   -72.0460 HW1           1 RES     
   11281 HW2         33.4700    -4.0090   -73.5750 HW2           1 RES     
   11282 OW          24.3280    19.1650   -72.2480 OW            1 RES     
   11283 HW1         23.4460    19.6330   -72.2010 HW1           1 RES     
   11284 HW2         24.6780    19.2070   -73.1840 HW2           1 RES     
   11285 OW          33.5470    19.2950   -65.4060 OW            1 RES     
   11286 HW1         33.1380    18.3850   -65.4600 HW1           1 RES     
   11287 HW2         32.8240    19.9870   -65.4210 HW2           1 RES     
   11288 OW          35.9440    11.5260   -67.4190 OW            1 RES     
   11289 HW1         36.8390    11.2010   -67.7200 HW1           1 RES     
   11290 HW2         35.2400    10.8720   -67.6970 HW2           1 RES     
   11291 OW          39.9680    13.4700   -71.8340 OW            1 RES     
   11292 HW1         39.5200    14.3510   -71.6880 HW1           1 RES     
   11293 HW2         40.3970    13.4590   -72.7380 HW2           1 RES     
   11294 OW           9.6690    38.7730   -69.9940 OW            1 RES     
   11295 HW1          9.5250    39.1670   -70.9020 HW1           1 RES     
   11296 HW2          8.9710    39.1180   -69.3660 HW2           1 RES     
   11297 OW          37.0410    34.8710   -66.8520 OW            1 RES     
   11298 HW1         36.5270    34.0150   -66.8840 HW1           1 RES     
   11299 HW2         37.7980    34.7820   -66.2040 HW2           1 RES     
   11300 OW          28.0730    26.8460   -60.0930 OW            1 RES     
   11301 HW1         29.0060    27.1170   -60.3280 HW1           1 RES     
   11302 HW2         28.0990    26.1100   -59.4170 HW2           1 RES     
   11303 OW          39.6450    14.2930   -62.6440 OW            1 RES     
   11304 HW1         40.2360    13.4940   -62.7510 HW1           1 RES     
   11305 HW2         40.1560    15.1200   -62.8800 HW2           1 RES     
   11306 OW          37.2660    15.9760   -67.4950 OW            1 RES     
   11307 HW1         37.9010    15.5170   -66.8760 HW1           1 RES     
   11308 HW2         37.1960    15.4560   -68.3470 HW2           1 RES     
   11309 OW          19.4230    -2.4170   -63.0610 OW            1 RES     
   11310 HW1         18.4460    -2.6270   -63.0590 HW1           1 RES     
   11311 HW2         19.9470    -3.2690   -63.0630 HW2           1 RES     
   11312 OW           8.4760    15.2700   -71.0020 OW            1 RES     
   11313 HW1          8.7370    15.2980   -70.0370 HW1           1 RES     
   11314 HW2          7.9900    16.1100   -71.2410 HW2           1 RES     
   11315 OW          29.3510    -0.5770   -70.2860 OW            1 RES     
   11316 HW1         29.6890    -1.4750   -70.0070 HW1           1 RES     
   11317 HW2         28.3510    -0.5860   -70.3000 HW2           1 RES     
   11318 OW          37.8880    37.9000   -64.7760 OW            1 RES     
   11319 HW1         38.5460    38.6370   -64.9270 HW1           1 RES     
   11320 HW2         37.9530    37.5820   -63.8300 HW2           1 RES     
   11321 OW          26.6710    -1.6480   -63.7100 OW            1 RES     
   11322 HW1         26.9280    -2.4710   -64.2160 HW1           1 RES     
   11323 HW2         27.4890    -1.1070   -63.5140 HW2           1 RES     
   11324 OW          35.7050    28.7600   -73.3860 OW            1 RES     
   11325 HW1         35.6160    29.7530   -73.3150 HW1           1 RES     
   11326 HW2         36.4790    28.5350   -73.9780 HW2           1 RES     
   11327 OW          13.8010    31.2570   -68.3770 OW            1 RES     
   11328 HW1         13.5990    31.2080   -67.4000 HW1           1 RES     
   11329 HW2         14.7650    31.0410   -68.5310 HW2           1 RES     
   11330 OW          37.3070     0.6040   -60.9560 OW            1 RES     
   11331 HW1         38.0650     0.3830   -61.5700 HW1           1 RES     
   11332 HW2         37.1930    -0.1310   -60.2880 HW2           1 RES     
   11333 OW          38.7010    20.2880   -61.0570 OW            1 RES     
   11334 HW1         39.4980    20.8910   -61.0500 HW1           1 RES     
   11335 HW2         38.8980    19.4680   -60.5190 HW2           1 RES     
   11336 OW           8.2980    -0.9970   -60.5690 OW            1 RES     
   11337 HW1          8.2050    -1.9910   -60.5440 HW1           1 RES     
   11338 HW2          7.3920    -0.5780   -60.6260 HW2           1 RES     
   11339 OW          29.4260     9.4020   -73.9540 OW            1 RES     
   11340 HW1         28.4400     9.3680   -74.1130 HW1           1 RES     
   11341 HW2         29.7360     8.5230   -73.5910 HW2           1 RES     
   11342 OW          21.9590    14.4310   -60.7080 OW            1 RES     
   11343 HW1         22.2510    15.3870   -60.7160 HW1           1 RES     
   11344 HW2         20.9600    14.3870   -60.6940 HW2           1 RES     
   11345 OW          -2.7080    -0.5700   -61.2560 OW            1 RES     
   11346 HW1         -3.1590     0.0970   -61.8470 HW1           1 RES     
   11347 HW2         -2.5560    -1.4180   -61.7640 HW2           1 RES     
   11348 OW           3.5910    -1.4580   -63.6390 OW            1 RES     
   11349 HW1          3.5780    -2.3820   -64.0200 HW1           1 RES     
   11350 HW2          2.7830    -1.3220   -63.0650 HW2           1 RES     
   11351 OW          29.0020     0.1630   -61.8530 OW            1 RES     
   11352 HW1         29.7750    -0.2520   -61.3750 HW1           1 RES     
   11353 HW2         28.2580     0.3280   -61.2050 HW2           1 RES     
   11354 OW          12.0290     5.4250   -59.9040 OW            1 RES     
   11355 HW1         11.0960     5.7840   -59.8780 HW1           1 RES     
   11356 HW2         12.0160     4.4870   -60.2490 HW2           1 RES     
   11357 OW          35.4720    -3.4020   -70.7450 OW            1 RES     
   11358 HW1         34.9330    -2.8100   -70.1460 HW1           1 RES     
   11359 HW2         35.9320    -2.8450   -71.4370 HW2           1 RES     
   11360 OW          32.5390    31.4550   -71.5170 OW            1 RES     
   11361 HW1         33.4560    31.1930   -71.8160 HW1           1 RES     
   11362 HW2         32.4580    32.4520   -71.5260 HW2           1 RES     
   11363 OW           1.3120    -1.7190   -71.4420 OW            1 RES     
   11364 HW1          1.1440    -0.7340   -71.4550 HW1           1 RES     
   11365 HW2          2.2970    -1.8900   -71.4290 HW2           1 RES     
   11366 OW          -1.1000    14.4210   -60.2370 OW            1 RES     
   11367 HW1         -0.7940    15.3060   -59.8900 HW1           1 RES     
   11368 HW2         -0.9680    13.7220   -59.5330 HW2           1 RES     
   11369 OW          14.2580    26.7090   -74.1540 OW            1 RES     
   11370 HW1         15.2330    26.4920   -74.1390 HW1           1 RES     
   11371 HW2         13.7270    25.8620   -74.1620 HW2           1 RES     
   11372 OW          35.9890    -2.4870   -66.3180 OW            1 RES     
   11373 HW1         36.2980    -1.5380   -66.2690 HW1           1 RES     
   11374 HW2         35.1900    -2.5470   -66.9160 HW2           1 RES     
   11375 OW          10.2810    25.6600   -61.9370 OW            1 RES     
   11376 HW1         11.1580    26.0240   -62.2500 HW1           1 RES     
   11377 HW2          9.5440    26.2760   -62.2170 HW2           1 RES     
   11378 OW          10.3890    26.2780   -69.1430 OW            1 RES     
   11379 HW1         10.6590    27.2340   -69.2540 HW1           1 RES     
   11380 HW2         10.7910    25.9130   -68.3030 HW2           1 RES     
   11381 OW          -4.0830    18.8450   -69.5640 OW            1 RES     
   11382 HW1         -5.0550    19.0570   -69.4760 HW1           1 RES     
   11383 HW2         -3.9580    17.8520   -69.5830 HW2           1 RES     
   11384 OW           3.3930    24.9270   -69.9920 OW            1 RES     
   11385 HW1          2.6780    24.6140   -70.6160 HW1           1 RES     
   11386 HW2          3.4770    25.9220   -70.0530 HW2           1 RES     
   11387 OW           4.3050    30.2140   -71.5560 OW            1 RES     
   11388 HW1          5.2920    30.1110   -71.4430 HW1           1 RES     
   11389 HW2          3.8750    29.3120   -71.5730 HW2           1 RES     
   11390 OW           7.6450     7.1580   -73.0960 OW            1 RES     
   11391 HW1          6.8280     7.3060   -73.6520 HW1           1 RES     
   11392 HW2          7.6790     6.2040   -72.7990 HW2           1 RES     
   11393 OW          -6.1070    38.5130   -72.6480 OW            1 RES     
   11394 HW1         -5.3320    39.0310   -73.0100 HW1           1 RES     
   11395 HW2         -6.0430    38.4710   -71.6500 HW2           1 RES     
   11396 OW          44.1730    13.5940   -61.5880 OW            1 RES     
   11397 HW1         44.3550    12.9620   -60.8350 HW1           1 RES     
   11398 HW2         44.2560    13.1090   -62.4590 HW2           1 RES     
   11399 OW          12.3150     3.8650   -67.5220 OW            1 RES     
   11400 HW1         12.5900     4.8080   -67.7060 HW1           1 RES     
   11401 HW2         12.5400     3.6310   -66.5760 HW2           1 RES     
   11402 OW          44.6670    16.4870   -62.5810 OW            1 RES     
   11403 HW1         44.2330    15.5880   -62.6220 HW1           1 RES     
   11404 HW2         44.3250    17.0580   -63.3270 HW2           1 RES     
   11405 OW           5.1300    -0.6870   -58.5870 OW            1 RES     
   11406 HW1          4.7360    -1.6050   -58.5780 HW1           1 RES     
   11407 HW2          4.3970    -0.0080   -58.5510 HW2           1 RES     
   11408 OW          15.7150    35.9490   -74.1460 OW            1 RES     
   11409 HW1         14.8350    36.4240   -74.1620 HW1           1 RES     
   11410 HW2         15.5610    34.9610   -74.1360 HW2           1 RES     
   11411 OW          -2.3870    11.7900   -73.4310 OW            1 RES     
   11412 HW1         -3.1200    12.3520   -73.8150 HW1           1 RES     
   11413 HW2         -1.7060    11.6010   -74.1380 HW2           1 RES     
   11414 OW          33.2290    12.8870   -58.6510 OW            1 RES     
   11415 HW1         33.7300    12.1380   -59.0840 HW1           1 RES     
   11416 HW2         33.7900    13.7150   -58.6630 HW2           1 RES     
   11417 OW          45.4000    27.1760   -68.8210 OW            1 RES     
   11418 HW1         45.1800    28.1110   -68.5450 HW1           1 RES     
   11419 HW2         44.9320    26.9620   -69.6790 HW2           1 RES     
   11420 OW          41.5070    20.8900   -59.5250 OW            1 RES     
   11421 HW1         41.7100    20.8300   -60.5020 HW1           1 RES     
   11422 HW2         40.7380    20.2900   -59.3060 HW2           1 RES     
   11423 OW          23.0670    19.5380   -69.2280 OW            1 RES     
   11424 HW1         22.5040    19.6180   -70.0500 HW1           1 RES     
   11425 HW2         22.6050    18.9510   -68.5630 HW2           1 RES     
   11426 OW          11.9870    23.0260   -60.1150 OW            1 RES     
   11427 HW1         12.1560    22.5510   -59.2520 HW1           1 RES     
   11428 HW2         11.0030    23.1480   -60.2420 HW2           1 RES     
   11429 OW          -1.1570    34.8030   -65.3330 OW            1 RES     
   11430 HW1         -1.9410    34.5410   -64.7700 HW1           1 RES     
   11431 HW2         -0.5030    35.3160   -64.7770 HW2           1 RES     
   11432 OW          18.1460    35.6680   -69.9880 OW            1 RES     
   11433 HW1         18.2170    36.0390   -69.0620 HW1           1 RES     
   11434 HW2         18.5610    34.7580   -70.0150 HW2           1 RES     
   11435 OW          38.7750     7.0600   -59.2950 OW            1 RES     
   11436 HW1         37.8120     7.2780   -59.1380 HW1           1 RES     
   11437 HW2         39.3280     7.4360   -58.5510 HW2           1 RES     
   11438 OW          25.0540    23.6600   -73.8950 OW            1 RES     
   11439 HW1         25.4610    22.7870   -74.1620 HW1           1 RES     
   11440 HW2         24.0570    23.5790   -73.8990 HW2           1 RES     
   11441 OW           0.3210     4.9590   -68.2230 OW            1 RES     
   11442 HW1         -0.0550     4.1980   -68.7510 HW1           1 RES     
   11443 HW2         -0.0280     4.9210   -67.2870 HW2           1 RES     
   11444 OW          -2.4410    34.0350   -69.4200 OW            1 RES     
   11445 HW1         -3.4290    34.1490   -69.3240 HW1           1 RES     
   11446 HW2         -2.0510    34.8510   -69.8490 HW2           1 RES     
   11447 OW           2.5870    31.7960   -70.2370 OW            1 RES     
   11448 HW1          3.4950    32.1690   -70.0480 HW1           1 RES     
   11449 HW2          2.6190    30.7980   -70.1840 HW2           1 RES     
   11450 OW          26.4520    14.7440   -60.4560 OW            1 RES     
   11451 HW1         26.2180    15.4730   -61.0980 HW1           1 RES     
   11452 HW2         26.2070    15.0250   -59.5270 HW2           1 RES     
   11453 OW           5.4840    15.3000   -63.2710 OW            1 RES     
   11454 HW1          5.2460    14.3490   -63.4680 HW1           1 RES     
   11455 HW2          4.6760    15.8780   -63.3860 HW2           1 RES     
   11456 OW          35.7500    -0.8160   -70.6080 OW            1 RES     
   11457 HW1         36.0530    -0.0260   -70.0760 HW1           1 RES     
   11458 HW2         34.9260    -0.5760   -71.1220 HW2           1 RES     
   11459 OW          29.6070     7.2450   -59.4550 OW            1 RES     
   11460 HW1         30.3830     6.7960   -59.0130 HW1           1 RES     
   11461 HW2         28.8340     7.2750   -58.8210 HW2           1 RES     
   11462 OW          26.3160     2.0320   -69.1370 OW            1 RES     
   11463 HW1         25.6800     2.7710   -69.3540 HW1           1 RES     
   11464 HW2         26.5660     2.0790   -68.1700 HW2           1 RES     
   11465 OW          20.9490     5.0380   -68.7400 OW            1 RES     
   11466 HW1         21.3920     4.2970   -69.2430 HW1           1 RES     
   11467 HW2         21.5330     5.8500   -68.7580 HW2           1 RES     
   11468 OW          11.2730    21.4970   -66.4240 OW            1 RES     
   11469 HW1         12.1340    21.0040   -66.3140 HW1           1 RES     
   11470 HW2         10.5070    20.8670   -66.2940 HW2           1 RES     
   11471 OW          37.9540    30.4730   -71.9430 OW            1 RES     
   11472 HW1         37.2570    30.1640   -71.2970 HW1           1 RES     
   11473 HW2         37.7730    30.0770   -72.8440 HW2           1 RES     
   11474 OW          10.9630    17.9400   -70.3120 OW            1 RES     
   11475 HW1         10.9820    18.1930   -69.3460 HW1           1 RES     
   11476 HW2         10.0480    17.6190   -70.5560 HW2           1 RES     
   11477 OW          26.4750    33.2590   -63.0050 OW            1 RES     
   11478 HW1         27.4630    33.1710   -63.1210 HW1           1 RES     
   11479 HW2         26.0210    32.4450   -63.3690 HW2           1 RES     
   11480 OW          11.1980    20.5760   -64.2080 OW            1 RES     
   11481 HW1         10.2960    20.1460   -64.2070 HW1           1 RES     
   11482 HW2         11.0930    21.5710   -64.2170 HW2           1 RES     
   11483 OW          16.8890    33.4760   -72.6270 OW            1 RES     
   11484 HW1         17.2600    34.3710   -72.8700 HW1           1 RES     
   11485 HW2         17.6270    32.8840   -72.3050 HW2           1 RES     
   11486 OW          41.3640     8.5810   -68.7490 OW            1 RES     
   11487 HW1         42.0310     8.6390   -68.0070 HW1           1 RES     
   11488 HW2         40.4610     8.8400   -68.4060 HW2           1 RES     
   11489 OW          15.4850    29.1490   -66.5670 OW            1 RES     
   11490 HW1         14.5080    29.2050   -66.7700 HW1           1 RES     
   11491 HW2         15.6380    29.3590   -65.6010 HW2           1 RES     
   11492 OW          -1.7400    16.9310   -66.0940 OW            1 RES     
   11493 HW1         -0.8230    16.5830   -66.2840 HW1           1 RES     
   11494 HW2         -1.7830    17.9030   -66.3240 HW2           1 RES     
   11495 OW          -3.0930    14.3180   -66.3240 OW            1 RES     
   11496 HW1         -3.1620    14.7360   -65.4180 HW1           1 RES     
   11497 HW2         -3.0670    15.0350   -67.0210 HW2           1 RES     
   11498 OW          43.2350    37.5150   -60.4040 OW            1 RES     
   11499 HW1         43.9730    38.0800   -60.0370 HW1           1 RES     
   11500 HW2         42.6870    38.0540   -61.0430 HW2           1 RES     
   11501 OW          25.0270    39.0220   -62.5590 OW            1 RES     
   11502 HW1         24.4470    39.7610   -62.2180 HW1           1 RES     
   11503 HW2         25.8450    39.4090   -62.9860 HW2           1 RES     
   11504 OW          13.0160    -0.0780   -74.1060 OW            1 RES     
   11505 HW1         12.8580    -0.9470   -73.6370 HW1           1 RES     
   11506 HW2         13.9080     0.2860   -73.8410 HW2           1 RES     
   11507 OW          30.1680    38.3810   -63.7630 OW            1 RES     
   11508 HW1         30.5190    39.2910   -63.9790 HW1           1 RES     
   11509 HW2         30.9320    37.7560   -63.6080 HW2           1 RES     
   11510 OW          11.7830    32.5240   -69.8130 OW            1 RES     
   11511 HW1         10.7840    32.5000   -69.8380 HW1           1 RES     
   11512 HW2         12.1400    31.5890   -69.8150 HW2           1 RES     
   11513 OW           4.5440    20.9710   -69.3530 OW            1 RES     
   11514 HW1          4.2060    20.8360   -68.4220 HW1           1 RES     
   11515 HW2          3.7770    20.9410   -69.9940 HW2           1 RES     
   11516 OW          20.3770    30.1200   -66.1680 OW            1 RES     
   11517 HW1         20.9060    30.5240   -65.4230 HW1           1 RES     
   11518 HW2         19.6310    30.7370   -66.4210 HW2           1 RES     
   11519 OW          21.0970    27.0080   -72.0080 OW            1 RES     
   11520 HW1         20.5560    27.5390   -71.3570 HW1           1 RES     
   11521 HW2         20.4990    26.3730   -72.4990 HW2           1 RES     
   11522 OW          11.4240    29.3280   -69.8970 OW            1 RES     
   11523 HW1         10.8530    29.8620   -70.5200 HW1           1 RES     
   11524 HW2         11.9150    28.6260   -70.4130 HW2           1 RES     
   11525 OW          43.7810    13.5860   -68.4350 OW            1 RES     
   11526 HW1         43.4160    12.6650   -68.5690 HW1           1 RES     
   11527 HW2         44.7790    13.5620   -68.4970 HW2           1 RES     
   11528 OW          19.4840    12.4890   -62.2350 OW            1 RES     
   11529 HW1         19.6650    13.4720   -62.2200 HW1           1 RES     
   11530 HW2         20.0890    12.0490   -62.9000 HW2           1 RES     
   11531 OW          -3.8620    27.3290   -66.2570 OW            1 RES     
   11532 HW1         -3.6140    28.1990   -66.6820 HW1           1 RES     
   11533 HW2         -3.8460    27.4260   -65.2620 HW2           1 RES     
   11534 OW           3.0590    17.6190   -62.6950 OW            1 RES     
   11535 HW1          2.4040    17.1390   -63.2780 HW1           1 RES     
   11536 HW2          2.8850    17.3880   -61.7380 HW2           1 RES     
   11537 OW          22.8570    22.7090   -70.3780 OW            1 RES     
   11538 HW1         22.3020    21.9180   -70.6360 HW1           1 RES     
   11539 HW2         22.5420    23.5150   -70.8790 HW2           1 RES     
   11540 OW          23.5880     1.7640   -59.7290 OW            1 RES     
   11541 HW1         22.8400     1.8730   -59.0750 HW1           1 RES     
   11542 HW2         24.0900     0.9230   -59.5250 HW2           1 RES     
   11543 OW           0.4490    40.0220   -67.0580 OW            1 RES     
   11544 HW1         -0.3840    40.2950   -66.5780 HW1           1 RES     
   11545 HW2          1.1970    39.9270   -66.4010 HW2           1 RES     
   11546 OW          32.6440    34.2180   -62.3980 OW            1 RES     
   11547 HW1         32.4970    35.1120   -62.8210 HW1           1 RES     
   11548 HW2         32.2050    34.1980   -61.4990 HW2           1 RES     
   11549 OW          22.9000    16.9290   -72.9510 OW            1 RES     
   11550 HW1         22.2720    16.1650   -72.8030 HW1           1 RES     
   11551 HW2         22.3910    17.7900   -72.9200 HW2           1 RES     
   11552 OW          -4.4580    -3.7280   -66.7940 OW            1 RES     
   11553 HW1         -5.2720    -4.2930   -66.9220 HW1           1 RES     
   11554 HW2         -3.6660    -4.3170   -66.6270 HW2           1 RES     
   11555 OW          36.5990    29.2560   -65.3000 OW            1 RES     
   11556 HW1         36.2600    30.1960   -65.3140 HW1           1 RES     
   11557 HW2         35.8680    28.6340   -65.5800 HW2           1 RES     
   11558 OW           9.7990    35.4840   -62.6350 OW            1 RES     
   11559 HW1          9.9520    35.4310   -61.6490 HW1           1 RES     
   11560 HW2          9.6040    34.5710   -62.9930 HW2           1 RES     
   11561 OW          38.3450    22.3910   -70.5200 OW            1 RES     
   11562 HW1         38.7830    22.9920   -71.1880 HW1           1 RES     
   11563 HW2         38.6000    21.4420   -70.7070 HW2           1 RES     
   11564 OW          13.3000    21.8560   -62.3930 OW            1 RES     
   11565 HW1         13.3820    21.5240   -63.3320 HW1           1 RES     
   11566 HW2         12.4650    22.3990   -62.3020 HW2           1 RES     
   11567 OW           6.4600    35.6350   -70.3680 OW            1 RES     
   11568 HW1          5.5040    35.5180   -70.6360 HW1           1 RES     
   11569 HW2          6.8180    34.7680   -70.0190 HW2           1 RES     
   11570 OW           3.1050    21.4230   -59.3260 OW            1 RES     
   11571 HW1          2.1170    21.2950   -59.2400 HW1           1 RES     
   11572 HW2          3.5450    20.5360   -59.4650 HW2           1 RES     
   11573 OW          -2.6670     6.8790   -70.9960 OW            1 RES     
   11574 HW1         -1.7840     6.9450   -71.4610 HW1           1 RES     
   11575 HW2         -3.1950     7.7120   -71.1620 HW2           1 RES     
   11576 OW           7.3760    26.2160   -72.2830 OW            1 RES     
   11577 HW1          7.1610    26.4750   -73.2230 HW1           1 RES     
   11578 HW2          8.3680    26.2270   -72.1520 HW2           1 RES     
   11579 OW          -2.0690    26.4520   -59.1780 OW            1 RES     
   11580 HW1         -1.9390    26.9060   -60.0590 HW1           1 RES     
   11581 HW2         -1.3390    26.7250   -58.5510 HW2           1 RES     
   11582 OW          16.4700     6.1760   -74.0740 OW            1 RES     
   11583 HW1         16.2470     5.2060   -74.1620 HW1           1 RES     
   11584 HW2         15.6260     6.7130   -74.0710 HW2           1 RES     
   11585 OW          39.2290    18.5860   -72.4380 OW            1 RES     
   11586 HW1         40.1390    18.6990   -72.8360 HW1           1 RES     
   11587 HW2         39.0370    19.3490   -71.8210 HW2           1 RES     
   11588 OW          12.1880     9.1840   -60.6440 OW            1 RES     
   11589 HW1         12.2580     9.5390   -61.5750 HW1           1 RES     
   11590 HW2         12.7780     9.7180   -60.0380 HW2           1 RES     
   11591 OW          37.3860    24.9360   -62.4260 OW            1 RES     
   11592 HW1         36.7620    24.3770   -61.8810 HW1           1 RES     
   11593 HW2         36.8670    25.4430   -63.1140 HW2           1 RES     
   11594 OW          27.2720    30.3550   -62.0030 OW            1 RES     
   11595 HW1         27.9360    30.1070   -62.7080 HW1           1 RES     
   11596 HW2         27.2450    31.3500   -61.9050 HW2           1 RES     
   11597 OW          34.3560    11.7900   -62.2110 OW            1 RES     
   11598 HW1         34.4470    12.7120   -61.8350 HW1           1 RES     
   11599 HW2         33.4950    11.3860   -61.9010 HW2           1 RES     
   11600 OW          16.6770     2.1730   -68.6720 OW            1 RES     
   11601 HW1         15.9130     1.8650   -68.1060 HW1           1 RES     
   11602 HW2         17.3840     2.5740   -68.0880 HW2           1 RES     
   11603 OW           0.6750    38.9760   -58.9650 OW            1 RES     
   11604 HW1          1.4350    39.6250   -58.9580 HW1           1 RES     
   11605 HW2         -0.1620    39.4400   -58.6750 HW2           1 RES     
   11606 OW          20.3840     2.8350   -58.8090 OW            1 RES     
   11607 HW1         20.1960     1.8600   -58.9140 HW1           1 RES     
   11608 HW2         19.5430     3.3120   -58.5510 HW2           1 RES     
   11609 OW          31.3280    38.2790   -59.9000 OW            1 RES     
   11610 HW1         31.9460    37.5440   -60.1740 HW1           1 RES     
   11611 HW2         30.5290    38.2860   -60.5020 HW2           1 RES     
   11612 OW          41.1390    29.3370   -61.7280 OW            1 RES     
   11613 HW1         41.7470    28.7330   -62.2420 HW1           1 RES     
   11614 HW2         41.3770    30.2900   -61.9160 HW2           1 RES     
   11615 OW          21.4860    38.0740   -74.0350 OW            1 RES     
   11616 HW1         22.4590    38.2970   -74.0870 HW1           1 RES     
   11617 HW2         20.9450    38.9070   -74.1590 HW2           1 RES     
   11618 OW          23.3390    42.2640   -63.4910 OW            1 RES     
   11619 HW1         24.0360    42.6510   -62.8890 HW1           1 RES     
   11620 HW2         23.3100    41.2710   -63.3740 HW2           1 RES     
   11621 OW          -2.4590     7.4840   -74.1610 OW            1 RES     
   11622 HW1         -1.7580     6.7720   -74.1210 HW1           1 RES     
   11623 HW2         -3.0270     7.4400   -73.3390 HW2           1 RES     
   11624 OW          28.7910     8.1650   -68.3680 OW            1 RES     
   11625 HW1         29.4360     8.8880   -68.6130 HW1           1 RES     
   11626 HW2         27.9100     8.5710   -68.1240 HW2           1 RES     
   11627 OW           6.5550    24.5500   -67.0900 OW            1 RES     
   11628 HW1          7.5060    24.8350   -67.2000 HW1           1 RES     
   11629 HW2          6.5250    23.6100   -66.7490 HW2           1 RES     
   11630 OW          33.5740    39.7640   -63.3660 OW            1 RES     
   11631 HW1         33.8100    39.3590   -62.4840 HW1           1 RES     
   11632 HW2         32.8550    39.2220   -63.8010 HW2           1 RES     
   11633 OW          29.4800    32.8660   -61.8240 OW            1 RES     
   11634 HW1         30.0860    33.6240   -62.0650 HW1           1 RES     
   11635 HW2         29.8930    32.0030   -62.1170 HW2           1 RES     
   11636 OW          25.1290     6.8740   -62.1020 OW            1 RES     
   11637 HW1         25.0110     6.6430   -61.1370 HW1           1 RES     
   11638 HW2         24.6200     7.7090   -62.3100 HW2           1 RES     
   11639 OW          42.8260    43.1450   -65.8250 OW            1 RES     
   11640 HW1         41.8320    43.0960   -65.7410 HW1           1 RES     
   11641 HW2         43.1730    42.2850   -66.2010 HW2           1 RES     
   11642 OW          12.5670    -1.4970   -69.0380 OW            1 RES     
   11643 HW1         11.7220    -1.8180   -69.4660 HW1           1 RES     
   11644 HW2         12.9540    -2.2280   -68.4760 HW2           1 RES     
   11645 OW          38.1160    20.1920   -66.2650 OW            1 RES     
   11646 HW1         39.0120    20.5890   -66.0680 HW1           1 RES     
   11647 HW2         37.4420    20.9240   -66.3690 HW2           1 RES     
   11648 OW          39.8120     5.3290   -60.1720 OW            1 RES     
   11649 HW1         40.2350     5.1040   -61.0490 HW1           1 RES     
   11650 HW2         40.0760     4.6470   -59.4890 HW2           1 RES     
   11651 OW          18.0090    11.3990   -63.4490 OW            1 RES     
   11652 HW1         17.7530    11.7130   -64.3630 HW1           1 RES     
   11653 HW2         17.4440    11.8620   -62.7660 HW2           1 RES     
   11654 OW          35.0240    17.8200   -71.8880 OW            1 RES     
   11655 HW1         35.1170    17.6050   -70.9160 HW1           1 RES     
   11656 HW2         34.7040    18.7620   -71.9920 HW2           1 RES     
   11657 OW          -1.9760     4.3690   -69.9950 OW            1 RES     
   11658 HW1         -2.9550     4.4270   -69.8030 HW1           1 RES     
   11659 HW2         -1.5720     5.2830   -69.9510 HW2           1 RES     
   11660 OW          41.2120    15.6480   -73.9570 OW            1 RES     
   11661 HW1         40.2300    15.4630   -73.9600 HW1           1 RES     
   11662 HW2         41.3670    16.6360   -73.9500 HW2           1 RES     
   11663 OW          42.6030    35.1250   -62.2890 OW            1 RES     
   11664 HW1         42.8710    34.2980   -62.7820 HW1           1 RES     
   11665 HW2         43.3960    35.7270   -62.1910 HW2           1 RES     
   11666 OW          38.9360    30.8580   -59.0780 OW            1 RES     
   11667 HW1         39.2860    31.7300   -58.7380 HW1           1 RES     
   11668 HW2         37.9370    30.8950   -59.1270 HW2           1 RES     
   11669 OW          17.7470    41.9930   -70.9500 OW            1 RES     
   11670 HW1         16.8920    41.4930   -71.0860 HW1           1 RES     
   11671 HW2         17.6570    42.9160   -71.3230 HW2           1 RES     
   11672 OW           7.8710     4.4730   -69.7340 OW            1 RES     
   11673 HW1          8.1890     5.0960   -70.4480 HW1           1 RES     
   11674 HW2          6.9930     4.7930   -69.3780 HW2           1 RES     
   11675 OW          45.1620    -2.4450   -60.1840 OW            1 RES     
   11676 HW1         45.4040    -2.5050   -61.1520 HW1           1 RES     
   11677 HW2         44.3730    -3.0320   -60.0000 HW2           1 RES     
   11678 OW          29.7100     4.6290   -58.9160 OW            1 RES     
   11679 HW1         28.8270     4.1720   -59.0190 HW1           1 RES     
   11680 HW2         30.4460     3.9590   -59.0180 HW2           1 RES     
   11681 OW          42.2550    24.1100   -67.7670 OW            1 RES     
   11682 HW1         43.2040    23.9430   -67.5010 HW1           1 RES     
   11683 HW2         41.8070    23.2390   -67.9680 HW2           1 RES     
   11684 OW          -0.6170    37.9500   -68.0800 OW            1 RES     
   11685 HW1          0.3440    37.9530   -67.8050 HW1           1 RES     
   11686 HW2         -1.1010    37.2210   -67.5960 HW2           1 RES     
   11687 OW          42.2490    41.4250   -71.6700 OW            1 RES     
   11688 HW1         43.2450    41.3360   -71.6720 HW1           1 RES     
   11689 HW2         41.8580    40.8120   -72.3570 HW2           1 RES     
   11690 OW          37.0700    26.4450   -72.3900 OW            1 RES     
   11691 HW1         36.1490    26.7360   -72.6460 HW1           1 RES     
   11692 HW2         37.0250    25.8820   -71.5640 HW2           1 RES     
   11693 OW          39.0610    37.6130   -70.8410 OW            1 RES     
   11694 HW1         39.2140    36.6350   -70.9830 HW1           1 RES     
   11695 HW2         39.8740    38.0210   -70.4250 HW2           1 RES     
   11696 OW          37.8160    16.1500   -63.7410 OW            1 RES     
   11697 HW1         38.1390    15.2280   -63.9530 HW1           1 RES     
   11698 HW2         36.8190    16.1450   -63.6630 HW2           1 RES     
   11699 OW          44.8370     2.9810   -69.2280 OW            1 RES     
   11700 HW1         45.4040     3.8030   -69.1890 HW1           1 RES     
   11701 HW2         45.4040     2.1960   -69.4800 HW2           1 RES     
   11702 OW          32.3620    20.3110   -70.4530 OW            1 RES     
   11703 HW1         31.6520    19.8960   -69.8850 HW1           1 RES     
   11704 HW2         32.6600    21.1710   -70.0380 HW2           1 RES     
   11705 OW           1.0660    32.4020   -59.5220 OW            1 RES     
   11706 HW1          1.1040    32.1680   -58.5510 HW1           1 RES     
   11707 HW2          1.3320    31.6070   -60.0670 HW2           1 RES     
   11708 OW          33.1350    27.0310   -59.1060 OW            1 RES     
   11709 HW1         32.8450    26.2470   -58.5580 HW1           1 RES     
   11710 HW2         33.7130    27.6300   -58.5510 HW2           1 RES     
   11711 OW          36.1650    35.9430   -64.4550 OW            1 RES     
   11712 HW1         36.0170    35.0680   -64.9150 HW1           1 RES     
   11713 HW2         36.0240    36.6900   -65.1050 HW2           1 RES     
   11714 OW          39.6560     0.6110   -59.0720 OW            1 RES     
   11715 HW1         40.5080     0.6480   -58.5510 HW1           1 RES     
   11716 HW2         38.9670     0.1070   -58.5510 HW2           1 RES     
   11717 OW           3.9050     2.7410   -63.2870 OW            1 RES     
   11718 HW1          3.3050     2.3270   -62.6040 HW1           1 RES     
   11719 HW2          3.6240     3.6880   -63.4480 HW2           1 RES     
   11720 OW           3.3640    37.1250   -62.6020 OW            1 RES     
   11721 HW1          2.4350    36.8160   -62.7990 HW1           1 RES     
   11722 HW2          3.3910    37.5440   -61.6940 HW2           1 RES     
   11723 OW          24.1950    38.1170   -64.5030 OW            1 RES     
   11724 HW1         23.4600    37.4940   -64.2370 HW1           1 RES     
   11725 HW2         25.0000    37.5880   -64.7730 HW2           1 RES     
   11726 OW          42.5430     6.3900   -58.8040 OW            1 RES     
   11727 HW1         41.5820     6.1150   -58.7960 HW1           1 RES     
   11728 HW2         42.6070     7.3810   -58.6890 HW2           1 RES     
   11729 OW           1.7720     5.2350   -64.5650 OW            1 RES     
   11730 HW1          2.6990     5.5990   -64.4850 HW1           1 RES     
   11731 HW2          1.2080     5.8710   -65.0920 HW2           1 RES     
   11732 OW          22.2140     8.1290   -72.7400 OW            1 RES     
   11733 HW1         22.3370     8.8030   -72.0130 HW1           1 RES     
   11734 HW2         23.0930     7.7000   -72.9500 HW2           1 RES     
   11735 OW          13.8250    18.5060   -62.9360 OW            1 RES     
   11736 HW1         13.5970    17.5390   -62.8320 HW1           1 RES     
   11737 HW2         14.7600    18.5940   -63.2810 HW2           1 RES     
   11738 OW           6.9710    29.3940   -68.9920 OW            1 RES     
   11739 HW1          6.2720    28.7040   -68.8060 HW1           1 RES     
   11740 HW2          6.5490    30.1850   -69.4350 HW2           1 RES     
   11741 OW          39.2490    30.3790   -61.2890 OW            1 RES     
   11742 HW1         38.2750    30.4160   -61.5140 HW1           1 RES     
   11743 HW2         39.5900    31.3060   -61.1320 HW2           1 RES     
   11744 OW          10.3650    41.1620   -68.4470 OW            1 RES     
   11745 HW1          9.8050    40.5630   -67.8750 HW1           1 RES     
   11746 HW2         10.2670    40.8960   -69.4060 HW2           1 RES     
   11747 OW          38.2170     6.9730   -67.9180 OW            1 RES     
   11748 HW1         38.0940     7.9400   -67.6960 HW1           1 RES     
   11749 HW2         37.3480     6.5890   -68.2300 HW2           1 RES     
   11750 OW          -5.5690    10.1730   -70.1860 OW            1 RES     
   11751 HW1         -6.1070     9.4130   -69.8240 HW1           1 RES     
   11752 HW2         -4.8630     9.8200   -70.8000 HW2           1 RES     
   11753 OW          28.0710    12.0790   -68.6630 OW            1 RES     
   11754 HW1         28.2060    11.4800   -67.8750 HW1           1 RES     
   11755 HW2         27.1440    12.4540   -68.6430 HW2           1 RES     
   11756 OW          -4.0220     2.5330   -71.0060 OW            1 RES     
   11757 HW1         -3.9610     1.6440   -70.5530 HW1           1 RES     
   11758 HW2         -4.9600     2.8730   -70.9480 HW2           1 RES     
   11759 OW          16.9570    25.2430   -59.5350 OW            1 RES     
   11760 HW1         17.1250    25.2020   -58.5510 HW1           1 RES     
   11761 HW2         16.7390    24.3290   -59.8760 HW2           1 RES     
   11762 OW          22.4280    -4.3160   -59.0020 OW            1 RES     
   11763 HW1         22.5810    -4.2680   -59.9880 HW1           1 RES     
   11764 HW2         22.9150    -3.5660   -58.5520 HW2           1 RES     
   11765 OW          18.1680     2.2610   -66.0250 OW            1 RES     
   11766 HW1         18.3790     3.2360   -66.0810 HW1           1 RES     
   11767 HW2         17.1880     2.1400   -65.8700 HW2           1 RES     
   11768 OW          -3.1450     2.4260   -66.1330 OW            1 RES     
   11769 HW1         -3.2240     2.7000   -65.1760 HW1           1 RES     
   11770 HW2         -2.6490     3.1290   -66.6430 HW2           1 RES     
   11771 OW          42.6990    -3.2670   -68.8110 OW            1 RES     
   11772 HW1         42.6690    -3.2410   -67.8120 HW1           1 RES     
   11773 HW2         41.9140    -3.7820   -69.1550 HW2           1 RES     
   11774 OW           0.4470    13.9100   -65.7390 OW            1 RES     
   11775 HW1          1.1790    14.5320   -66.0150 HW1           1 RES     
   11776 HW2          0.8390    13.0230   -65.4910 HW2           1 RES     
   11777 OW          -3.4010    31.6830   -72.9200 OW            1 RES     
   11778 HW1         -2.9410    31.0370   -72.3120 HW1           1 RES     
   11779 HW2         -4.0910    31.2000   -73.4600 HW2           1 RES     
   11780 OW          20.8130    32.6550   -65.9620 OW            1 RES     
   11781 HW1         20.9940    33.5520   -66.3630 HW1           1 RES     
   11782 HW2         20.8410    32.7230   -64.9650 HW2           1 RES     
   11783 OW           7.2920    -2.2610   -68.5380 OW            1 RES     
   11784 HW1          6.4860    -1.7840   -68.8850 HW1           1 RES     
   11785 HW2          7.0370    -3.1850   -68.2520 HW2           1 RES     
   11786 OW          -5.5500    12.7230   -72.7690 OW            1 RES     
   11787 HW1         -4.7900    13.3720   -72.7920 HW1           1 RES     
   11788 HW2         -5.1910    11.7890   -72.7500 HW2           1 RES     
   11789 OW          39.4390    42.5970   -70.7100 OW            1 RES     
   11790 HW1         38.6130    42.1670   -70.3460 HW1           1 RES     
   11791 HW2         39.8420    42.0070   -71.4100 HW2           1 RES     
   11792 OW          -6.0800    40.9050   -70.7750 OW            1 RES     
   11793 HW1         -5.8720    41.8770   -70.6740 HW1           1 RES     
   11794 HW2         -6.1080    40.6680   -71.7470 HW2           1 RES     
   11795 OW          23.8210     0.4010   -67.7710 OW            1 RES     
   11796 HW1         22.9870     0.9370   -67.6420 HW1           1 RES     
   11797 HW2         24.5460     0.9920   -68.1250 HW2           1 RES     
   11798 OW          27.8910    27.3480   -62.3770 OW            1 RES     
   11799 HW1         28.6380    28.0100   -62.3280 HW1           1 RES     
   11800 HW2         27.8000    27.0160   -63.3160 HW2           1 RES     
   11801 OW          13.4670    11.2780   -62.1680 OW            1 RES     
   11802 HW1         13.8750    12.0740   -62.6150 HW1           1 RES     
   11803 HW2         13.2010    11.5200   -61.2350 HW2           1 RES     
   11804 OW          -2.5770    30.6230   -66.0640 OW            1 RES     
   11805 HW1         -2.6250    29.7850   -65.5210 HW1           1 RES     
   11806 HW2         -3.5030    30.9450   -66.2640 HW2           1 RES     
   11807 OW          22.9300     9.7280   -67.2940 OW            1 RES     
   11808 HW1         22.3530    10.4310   -67.7080 HW1           1 RES     
   11809 HW2         23.6660    10.1630   -66.7750 HW2           1 RES     
   11810 OW           8.4970    36.6690   -71.4010 OW            1 RES     
   11811 HW1          8.5360    35.6780   -71.2770 HW1           1 RES     
   11812 HW2          9.3700    36.9940   -71.7660 HW2           1 RES     
   11813 OW          30.8750    17.6040   -72.8860 OW            1 RES     
   11814 HW1         30.6800    18.5460   -73.1560 HW1           1 RES     
   11815 HW2         31.8180    17.3750   -73.1280 HW2           1 RES     
   11816 OW          -2.0120     5.3610   -62.2000 OW            1 RES     
   11817 HW1         -2.7810     4.7230   -62.1890 HW1           1 RES     
   11818 HW2         -1.1760     4.8720   -62.4500 HW2           1 RES     
   11819 OW          20.2490    14.5530   -67.2630 OW            1 RES     
   11820 HW1         19.4000    14.3300   -66.7870 HW1           1 RES     
   11821 HW2         20.5470    15.4720   -67.0030 HW2           1 RES     
   11822 OW           2.8460    12.0300   -72.3840 OW            1 RES     
   11823 HW1          2.1900    11.3010   -72.1870 HW1           1 RES     
   11824 HW2          2.9670    12.5970   -71.5690 HW2           1 RES     
   11825 OW          23.5950     4.7620   -65.1250 OW            1 RES     
   11826 HW1         24.3570     4.7770   -65.7720 HW1           1 RES     
   11827 HW2         23.7840     5.3940   -64.3720 HW2           1 RES     
   11828 OW          18.4550    42.0170   -58.9480 OW            1 RES     
   11829 HW1         17.8560    42.0700   -59.7470 HW1           1 RES     
   11830 HW2         18.4170    41.0940   -58.5640 HW2           1 RES     
   11831 OW          30.7500    -1.2960   -58.8570 OW            1 RES     
   11832 HW1         30.2580    -2.1600   -58.9530 HW1           1 RES     
   11833 HW2         30.1170    -0.5830   -58.5530 HW2           1 RES     
   11834 OW          10.6780    32.8460   -72.0750 OW            1 RES     
   11835 HW1         10.2510    31.9590   -71.9030 HW1           1 RES     
   11836 HW2         11.6720    32.7580   -71.9970 HW2           1 RES     
   11837 OW          39.5270    24.0500   -64.1850 OW            1 RES     
   11838 HW1         39.3380    24.2240   -65.1510 HW1           1 RES     
   11839 HW2         39.2180    24.8290   -63.6390 HW2           1 RES     
   11840 OW           2.6610    26.6870   -67.5840 OW            1 RES     
   11841 HW1          1.6920    26.9310   -67.5960 HW1           1 RES     
   11842 HW2          2.7540    25.6950   -67.4920 HW2           1 RES     
   11843 OW           5.5260    11.3000   -68.6660 OW            1 RES     
   11844 HW1          5.7980    11.0880   -67.7280 HW1           1 RES     
   11845 HW2          5.0300    12.1680   -68.6820 HW2           1 RES     
   11846 OW          18.1390    -1.8990   -65.7500 OW            1 RES     
   11847 HW1         17.9460    -2.7210   -66.2860 HW1           1 RES     
   11848 HW2         17.5600    -1.1490   -66.0690 HW2           1 RES     
   11849 OW          26.3680    12.9350   -66.1010 OW            1 RES     
   11850 HW1         25.8520    12.3670   -66.7420 HW1           1 RES     
   11851 HW2         25.9830    12.8370   -65.1830 HW2           1 RES     
   11852 OW          -5.1240    -2.7610   -61.1820 OW            1 RES     
   11853 HW1         -4.3240    -3.0540   -61.7050 HW1           1 RES     
   11854 HW2         -5.8570    -2.5030   -61.8110 HW2           1 RES     
   11855 OW           5.4300     0.1090   -66.0640 OW            1 RES     
   11856 HW1          4.8550    -0.4410   -66.6680 HW1           1 RES     
   11857 HW2          4.9440     0.9460   -65.8120 HW2           1 RES     
   11858 OW          43.0960    35.2940   -67.4960 OW            1 RES     
   11859 HW1         42.7970    35.0760   -66.5680 HW1           1 RES     
   11860 HW2         44.0880    35.1870   -67.5620 HW2           1 RES     
   11861 OW          19.4640    21.1500   -73.4320 OW            1 RES     
   11862 HW1         18.6040    20.6840   -73.2280 HW1           1 RES     
   11863 HW2         19.2860    22.1200   -73.6020 HW2           1 RES     
   11864 OW          41.8750    17.4290   -69.1510 OW            1 RES     
   11865 HW1         41.5450    17.8790   -68.3230 HW1           1 RES     
   11866 HW2         42.8590    17.5800   -69.2440 HW2           1 RES     
   11867 OW          38.0700    18.1030   -65.0010 OW            1 RES     
   11868 HW1         38.9710    18.5180   -65.1220 HW1           1 RES     
   11869 HW2         37.9840    17.3100   -65.6030 HW2           1 RES     
   11870 OW          -5.4500    31.9050   -65.0150 OW            1 RES     
   11871 HW1         -5.8830    32.7990   -65.1260 HW1           1 RES     
   11872 HW2         -6.1070    31.1850   -65.2420 HW2           1 RES     
   11873 OW          39.6440    25.8200   -59.3380 OW            1 RES     
   11874 HW1         39.3370    26.3800   -58.5700 HW1           1 RES     
   11875 HW2         40.3430    26.3150   -59.8540 HW2           1 RES     
   11876 OW          43.9530     0.3660   -64.2340 OW            1 RES     
   11877 HW1         44.3110     0.5400   -65.1510 HW1           1 RES     
   11878 HW2         43.6440     1.2260   -63.8270 HW2           1 RES     
   11879 OW          26.9250    -3.4680   -58.5510 OW            1 RES     
   11880 HW1         27.9030    -3.4110   -58.7450 HW1           1 RES     
   11881 HW2         26.5570    -4.3170   -58.9320 HW2           1 RES     
   11882 OW          34.0660    -0.1360   -66.6580 OW            1 RES     
   11883 HW1         33.8510    -0.9560   -66.1290 HW1           1 RES     
   11884 HW2         33.4000     0.5800   -66.4490 HW2           1 RES     
   11885 OW           5.5750    11.1110   -70.9850 OW            1 RES     
   11886 HW1          5.0310    11.9420   -70.8710 HW1           1 RES     
   11887 HW2          6.0040    11.1150   -71.8890 HW2           1 RES     
   11888 OW          -2.9340    11.6770   -69.7990 OW            1 RES     
   11889 HW1         -3.8480    11.3760   -69.5290 HW1           1 RES     
   11890 HW2         -2.7140    12.5360   -69.3350 HW2           1 RES     
   11891 OW          29.5510     3.4020   -68.8430 OW            1 RES     
   11892 HW1         29.4910     3.1070   -69.7960 HW1           1 RES     
   11893 HW2         29.4030     2.6180   -68.2400 HW2           1 RES     
   11894 OW          43.8490    25.9510   -64.5060 OW            1 RES     
   11895 HW1         44.1360    25.9070   -63.5500 HW1           1 RES     
   11896 HW2         43.4040    25.0930   -64.7620 HW2           1 RES     
   11897 OW          -3.7680    22.3710   -71.9460 OW            1 RES     
   11898 HW1         -4.7280    22.6480   -71.9510 HW1           1 RES     
   11899 HW2         -3.7010    21.3920   -72.1380 HW2           1 RES     
   11900 OW          25.2950     5.1110   -72.7930 OW            1 RES     
   11901 HW1         26.0900     4.5140   -72.6970 HW1           1 RES     
   11902 HW2         25.1910     5.3800   -73.7510 HW2           1 RES     
   11903 OW          43.2810     4.1640   -60.4340 OW            1 RES     
   11904 HW1         43.9210     4.7310   -59.9180 HW1           1 RES     
   11905 HW2         42.3970     4.6270   -60.4930 HW2           1 RES     
   11906 OW           0.7670    28.6140   -70.9700 OW            1 RES     
   11907 HW1          0.2790    28.3340   -70.1440 HW1           1 RES     
   11908 HW2          1.7330    28.7600   -70.7540 HW2           1 RES     
   11909 OW          14.8750    -2.5410   -67.3900 OW            1 RES     
   11910 HW1         14.9700    -3.0790   -68.2270 HW1           1 RES     
   11911 HW2         15.6280    -2.7550   -66.7680 HW2           1 RES     
   11912 OW          15.9550    26.8530   -71.1770 OW            1 RES     
   11913 HW1         15.1820    27.4850   -71.2300 HW1           1 RES     
   11914 HW2         15.6150    25.9160   -71.0890 HW2           1 RES     
   11915 OW          27.4980    38.9060   -60.6210 OW            1 RES     
   11916 HW1         26.5970    38.7540   -61.0240 HW1           1 RES     
   11917 HW2         28.0400    39.4900   -61.2260 HW2           1 RES     
   11918 OW          25.1830    33.5790   -73.2000 OW            1 RES     
   11919 HW1         25.5560    33.1370   -74.0160 HW1           1 RES     
   11920 HW2         25.9140    34.0650   -72.7210 HW2           1 RES     
   11921 OW          17.7380     7.6040   -69.1120 OW            1 RES     
   11922 HW1         17.1100     8.2250   -68.6440 HW1           1 RES     
   11923 HW2         17.5200     7.5810   -70.0880 HW2           1 RES     
   11924 OW          17.7600    33.2680   -59.5280 OW            1 RES     
   11925 HW1         18.6280    33.7630   -59.5310 HW1           1 RES     
   11926 HW2         17.1670    33.6310   -60.2470 HW2           1 RES     
   11927 OW           3.3650    37.7270   -69.6460 OW            1 RES     
   11928 HW1          3.7630    37.7200   -70.5630 HW1           1 RES     
   11929 HW2          4.0820    37.5590   -68.9700 HW2           1 RES     
   11930 OW          21.7800    21.7230   -65.3180 OW            1 RES     
   11931 HW1         21.1350    22.2500   -65.8700 HW1           1 RES     
   11932 HW2         22.7000    22.1010   -65.4270 HW2           1 RES     
   11933 OW          16.5870    38.1940   -69.2230 OW            1 RES     
   11934 HW1         17.5820    38.2900   -69.2170 HW1           1 RES     
   11935 HW2         16.3400    37.3010   -69.5980 HW2           1 RES     
   11936 OW           5.7740     4.1390   -58.7860 OW            1 RES     
   11937 HW1          5.8390     5.1310   -58.8920 HW1           1 RES     
   11938 HW2          4.8340     3.8890   -58.5510 HW2           1 RES     
   11939 OW           1.6180    11.4260   -69.7180 OW            1 RES     
   11940 HW1          1.9190    10.4760   -69.8020 HW1           1 RES     
   11941 HW2          2.3830    11.9930   -69.4120 HW2           1 RES     
   11942 OW           6.9030    -2.7600   -73.2340 OW            1 RES     
   11943 HW1          7.4290    -2.0580   -72.7550 HW1           1 RES     
   11944 HW2          7.5280    -3.3980   -73.6830 HW2           1 RES     
   11945 OW          11.2680    27.9110   -61.0990 OW            1 RES     
   11946 HW1         12.0310    27.5600   -60.5580 HW1           1 RES     
   11947 HW2         11.3700    28.8980   -61.2200 HW2           1 RES     
   11948 OW          45.2260    19.2620   -69.1110 OW            1 RES     
   11949 HW1         44.2400    19.3980   -69.2020 HW1           1 RES     
   11950 HW2         45.4040    18.5780   -68.4020 HW2           1 RES     
   11951 OW           1.4740     2.2100   -71.2410 OW            1 RES     
   11952 HW1          2.2840     1.7460   -71.5990 HW1           1 RES     
   11953 HW2          0.6510     1.7430   -71.5650 HW2           1 RES     
   11954 OW          35.5120    20.0240   -66.9200 OW            1 RES     
   11955 HW1         35.9940    20.0660   -67.7940 HW1           1 RES     
   11956 HW2         35.8630    19.2570   -66.3820 HW2           1 RES     
   11957 OW           8.2660    23.6170   -73.3110 OW            1 RES     
   11958 HW1          8.3330    22.6340   -73.1480 HW1           1 RES     
   11959 HW2          7.5890    23.7910   -74.0270 HW2           1 RES     
   11960 OW           5.4160    31.6950   -73.5430 OW            1 RES     
   11961 HW1          5.4520    30.6970   -73.5760 HW1           1 RES     
   11962 HW2          6.3460    32.0620   -73.5140 HW2           1 RES     
   11963 OW          35.6820    -2.0060   -59.9600 OW            1 RES     
   11964 HW1         34.8410    -2.2900   -59.5010 HW1           1 RES     
   11965 HW2         35.4540    -1.4660   -60.7710 HW2           1 RES     
   11966 OW          33.7240     9.3710   -64.3690 OW            1 RES     
   11967 HW1         34.3750     9.7890   -63.7370 HW1           1 RES     
   11968 HW2         33.6660     8.3890   -64.1870 HW2           1 RES     
   11969 OW          36.6880    33.6950   -63.3320 OW            1 RES     
   11970 HW1         36.3770    32.7730   -63.5600 HW1           1 RES     
   11971 HW2         37.5750    33.8640   -63.7610 HW2           1 RES     
   11972 OW          21.3040    31.8070   -72.1030 OW            1 RES     
   11973 HW1         20.8260    30.9300   -72.1220 HW1           1 RES     
   11974 HW2         22.2920    31.6490   -72.0850 HW2           1 RES     
   11975 OW           5.9020    -2.7930   -66.0200 OW            1 RES     
   11976 HW1          6.3930    -2.0530   -66.4780 HW1           1 RES     
   11977 HW2          5.0290    -2.4500   -65.6730 HW2           1 RES     
   11978 OW          36.7920    33.4300   -69.8350 OW            1 RES     
   11979 HW1         37.2630    32.6100   -69.5120 HW1           1 RES     
   11980 HW2         36.6870    34.0750   -69.0780 HW2           1 RES     
   11981 OW          -5.3930    13.1520   -60.9680 OW            1 RES     
   11982 HW1         -4.4350    12.8740   -61.0320 HW1           1 RES     
   11983 HW2         -5.9820    12.3570   -61.1190 HW2           1 RES     
   11984 OW          42.1770    36.9510   -58.5590 OW            1 RES     
   11985 HW1         41.4800    37.6640   -58.6220 HW1           1 RES     
   11986 HW2         41.7360    36.0530   -58.5510 HW2           1 RES     
   11987 OW          12.3550    22.5100   -68.9760 OW            1 RES     
   11988 HW1         13.1290    22.1080   -68.4880 HW1           1 RES     
   11989 HW2         11.5100    22.3170   -68.4770 HW2           1 RES     
   11990 OW          42.2200    19.9310   -67.9050 OW            1 RES     
   11991 HW1         41.7190    19.7380   -67.0620 HW1           1 RES     
   11992 HW2         42.7260    20.7880   -67.8040 HW2           1 RES     
   11993 OW          37.0680    25.7520   -59.0450 OW            1 RES     
   11994 HW1         37.5870    25.0470   -58.5630 HW1           1 RES     
   11995 HW2         36.2170    25.9360   -58.5540 HW2           1 RES     
   11996 OW           8.4920    19.2150   -70.4580 OW            1 RES     
   11997 HW1          7.4940    19.1680   -70.4550 HW1           1 RES     
   11998 HW2          8.7820    20.1720   -70.4710 HW2           1 RES     
   11999 OW          -3.8700     7.3910   -60.0950 OW            1 RES     
   12000 HW1         -4.1950     8.3320   -60.0050 HW1           1 RES     
   12001 HW2         -4.4410     6.9030   -60.7550 HW2           1 RES     
   12002 OW          26.0740     6.7330   -58.7730 OW            1 RES     
   12003 HW1         25.0850     6.6700   -58.6450 HW1           1 RES     
   12004 HW2         26.3800     6.0000   -59.3800 HW2           1 RES     
   12005 OW           5.7110    29.6290   -63.8330 OW            1 RES     
   12006 HW1          6.1200    28.7210   -63.9140 HW1           1 RES     
   12007 HW2          4.7140    29.5490   -63.8380 HW2           1 RES     
   12008 OW          13.0790    26.5520   -71.9640 OW            1 RES     
   12009 HW1         12.9820    26.6310   -70.9730 HW1           1 RES     
   12010 HW2         13.2310    27.4590   -72.3590 HW2           1 RES     
   12011 OW          12.5200    18.3970   -72.2950 OW            1 RES     
   12012 HW1         12.7660    17.7570   -71.5680 HW1           1 RES     
   12013 HW2         13.1580    19.1680   -72.2910 HW2           1 RES     
   12014 OW          12.8850     6.2820   -71.3920 OW            1 RES     
   12015 HW1         13.7440     5.9420   -71.0090 HW1           1 RES     
   12016 HW2         13.0110     6.4870   -72.3620 HW2           1 RES     
   12017 OW          40.8650    37.3000   -67.1850 OW            1 RES     
   12018 HW1         40.7110    36.3870   -66.8090 HW1           1 RES     
   12019 HW2         41.8240    37.3940   -67.4510 HW2           1 RES     
   12020 OW          24.6590    24.7620   -63.6610 OW            1 RES     
   12021 HW1         25.0120    24.0160   -64.2240 HW1           1 RES     
   12022 HW2         24.7330    24.5150   -62.6950 HW2           1 RES     
   12023 OW          43.0060    31.1850   -66.6530 OW            1 RES     
   12024 HW1         43.0690    31.9420   -67.3020 HW1           1 RES     
   12025 HW2         43.8610    30.6660   -66.6620 HW2           1 RES     
   12026 OW          41.1340    23.0160   -65.5470 OW            1 RES     
   12027 HW1         41.2520    22.1950   -66.1050 HW1           1 RES     
   12028 HW2         42.0110    23.2760   -65.1440 HW2           1 RES     
   12029 OW          21.2040    39.0040   -68.6340 OW            1 RES     
   12030 HW1         21.5040    39.9540   -68.5500 HW1           1 RES     
   12031 HW2         20.6410    38.7610   -67.8440 HW2           1 RES     
   12032 OW           0.4880    10.6380   -60.1570 OW            1 RES     
   12033 HW1          1.1240    10.8270   -60.9050 HW1           1 RES     
   12034 HW2          0.0460    11.4890   -59.8730 HW2           1 RES     
   12035 OW          41.4970     7.9240   -73.6030 OW            1 RES     
   12036 HW1         41.9890     7.2380   -74.1380 HW1           1 RES     
   12037 HW2         40.7690     8.3240   -74.1610 HW2           1 RES     
   12038 OW          -2.2750    26.6530   -67.6220 OW            1 RES     
   12039 HW1         -3.1060    26.5320   -68.1630 HW1           1 RES     
   12040 HW2         -2.1120    25.8340   -67.0720 HW2           1 RES     
   12041 OW          39.1340    23.2640   -62.0740 OW            1 RES     
   12042 HW1         40.0640    23.0430   -61.7830 HW1           1 RES     
   12043 HW2         38.6850    22.4380   -62.4130 HW2           1 RES     
   12044 OW           0.0620    12.8730   -68.5280 OW            1 RES     
   12045 HW1         -0.6550    13.5690   -68.4900 HW1           1 RES     
   12046 HW2          0.7120    13.0220   -67.7830 HW2           1 RES     
   12047 OW          45.4040    22.6950   -69.7740 OW            1 RES     
   12048 HW1         45.1410    22.2510   -68.9180 HW1           1 RES     
   12049 HW2         45.3830    22.0250   -70.5170 HW2           1 RES     
   12050 OW          -1.6100     3.1510   -63.7510 OW            1 RES     
   12051 HW1         -1.1530     3.2120   -64.6370 HW1           1 RES     
   12052 HW2         -1.8270     2.1950   -63.5520 HW2           1 RES     
   12053 OW           1.1350    26.0380   -71.9270 OW            1 RES     
   12054 HW1          1.6200    26.4660   -71.1650 HW1           1 RES     
   12055 HW2          0.2830    25.6330   -71.5950 HW2           1 RES     
   12056 OW          35.9010     8.5240   -66.8530 OW            1 RES     
   12057 HW1         36.1740     7.6210   -66.5230 HW1           1 RES     
   12058 HW2         34.9240     8.5200   -67.0680 HW2           1 RES     
   12059 OW          28.6900    26.4080   -72.3880 OW            1 RES     
   12060 HW1         29.1470    26.5660   -71.5130 HW1           1 RES     
   12061 HW2         28.2880    27.2640   -72.7140 HW2           1 RES     
   12062 OW          26.2730    16.8680   -62.9340 OW            1 RES     
   12063 HW1         25.8720    17.3910   -62.1840 HW1           1 RES     
   12064 HW2         26.4400    17.4730   -63.7120 HW2           1 RES     
   12065 OW          14.2470    40.1740   -68.8630 OW            1 RES     
   12066 HW1         15.1500    40.1000   -69.2860 HW1           1 RES     
   12067 HW2         13.6030    40.5700   -69.5170 HW2           1 RES     
   12068 OW          42.8710    37.8850   -70.2900 OW            1 RES     
   12069 HW1         42.5640    38.7900   -70.5830 HW1           1 RES     
   12070 HW2         43.8280    37.9340   -70.0050 HW2           1 RES     
   12071 OW          30.6250     2.3280   -62.3170 OW            1 RES     
   12072 HW1         29.7610     2.5120   -61.8490 HW1           1 RES     
   12073 HW2         30.5830     1.4310   -62.7580 HW2           1 RES     
   12074 OW          20.0880    41.6070   -72.0280 OW            1 RES     
   12075 HW1         19.6190    40.8050   -72.3960 HW1           1 RES     
   12076 HW2         21.0310    41.3660   -71.7970 HW2           1 RES     
   12077 OW          18.9260    33.9060   -61.8870 OW            1 RES     
   12078 HW1         18.8100    32.9130   -61.8910 HW1           1 RES     
   12079 HW2         19.9010    34.1280   -61.8780 HW2           1 RES     
   12080 OW          10.3270    25.0330   -74.0230 OW            1 RES     
   12081 HW1          9.4060    25.4020   -73.9070 HW1           1 RES     
   12082 HW2         10.2760    24.0440   -74.1610 HW2           1 RES     
   12083 OW          25.4760    26.3220   -73.7950 OW            1 RES     
   12084 HW1         24.9160    25.7760   -73.1710 HW1           1 RES     
   12085 HW2         24.9290    27.0740   -74.1620 HW2           1 RES     
   12086 OW          36.5340     1.5480   -58.9500 OW            1 RES     
   12087 HW1         36.7630     2.5180   -58.8720 HW1           1 RES     
   12088 HW2         35.5570     1.4500   -59.1400 HW2           1 RES     
   12089 OW          11.2670    31.2380   -74.1510 OW            1 RES     
   12090 HW1         10.8350    32.1400   -74.1520 HW1           1 RES     
   12091 HW2         12.2610    31.3450   -74.1610 HW2           1 RES     
   12092 OW          11.1350    11.6750   -62.6960 OW            1 RES     
   12093 HW1         10.4890    10.9910   -63.0310 HW1           1 RES     
   12094 HW2         10.6690    12.2910   -62.0600 HW2           1 RES     
   12095 OW          -1.1450    36.4000   -58.5510 OW            1 RES     
   12096 HW1         -1.2950    37.3880   -58.5760 HW1           1 RES     
   12097 HW2         -0.1630    36.2110   -58.5710 HW2           1 RES     
   12098 OW          19.6380    40.1110   -63.9520 OW            1 RES     
   12099 HW1         19.2850    40.8510   -64.5240 HW1           1 RES     
   12100 HW2         20.1680    39.4770   -64.5160 HW2           1 RES     
   12101 OW          14.8560    10.5310   -60.1750 OW            1 RES     
   12102 HW1         15.6490    11.1170   -60.3370 HW1           1 RES     
   12103 HW2         14.8020     9.8350   -60.8910 HW2           1 RES     
   12104 OW          31.5810    30.8090   -73.5230 OW            1 RES     
   12105 HW1         30.6200    30.6230   -73.3240 HW1           1 RES     
   12106 HW2         32.1450    30.0610   -73.1720 HW2           1 RES     
   12107 OW          31.1900    38.5290   -74.1610 OW            1 RES     
   12108 HW1         30.2370    38.2300   -74.1260 HW1           1 RES     
   12109 HW2         31.2670    39.4440   -73.7660 HW2           1 RES     
   12110 OW          42.7810     0.1440   -67.8240 OW            1 RES     
   12111 HW1         42.2290     0.9640   -67.6760 HW1           1 RES     
   12112 HW2         43.1110    -0.1990   -66.9440 HW2           1 RES     
   12113 OW          -3.5730    25.0590   -61.5220 OW            1 RES     
   12114 HW1         -4.4970    25.3810   -61.7260 HW1           1 RES     
   12115 HW2         -3.5440    24.0620   -61.5900 HW2           1 RES     
   12116 OW          28.7960    20.1440   -62.5940 OW            1 RES     
   12117 HW1         28.1670    20.7900   -62.1640 HW1           1 RES     
   12118 HW2         28.6480    20.1430   -63.5840 HW2           1 RES     
   12119 OW          10.8210    10.9410   -59.3050 OW            1 RES     
   12120 HW1         10.3100    11.1590   -60.1350 HW1           1 RES     
   12121 HW2         10.1960    10.5780   -58.6130 HW2           1 RES     
   12122 OW           6.4380     4.4070   -63.6920 OW            1 RES     
   12123 HW1          5.6150     4.5780   -63.1520 HW1           1 RES     
   12124 HW2          6.5860     3.4220   -63.7720 HW2           1 RES     
   12125 OW          -2.0400    39.9930   -64.6670 OW            1 RES     
   12126 HW1         -2.2110    39.5100   -65.5250 HW1           1 RES     
   12127 HW2         -2.9110    40.1980   -64.2200 HW2           1 RES     
   12128 OW          28.9830    26.9750   -69.3570 OW            1 RES     
   12129 HW1         29.9160    26.6260   -69.2770 HW1           1 RES     
   12130 HW2         28.7620    27.5240   -68.5510 HW2           1 RES     
   12131 OW          33.4310    28.5010   -65.7850 OW            1 RES     
   12132 HW1         33.8560    29.0140   -66.5300 HW1           1 RES     
   12133 HW2         32.8030    27.8210   -66.1630 HW2           1 RES     
   12134 OW          26.1100    -4.3170   -68.5700 OW            1 RES     
   12135 HW1         26.6290    -3.4780   -68.7310 HW1           1 RES     
   12136 HW2         25.1390    -4.0960   -68.4780 HW2           1 RES     
   12137 OW          14.9690    32.4270   -72.3890 OW            1 RES     
   12138 HW1         15.4270    31.6620   -72.8410 HW1           1 RES     
   12139 HW2         14.5970    33.0490   -73.0790 HW2           1 RES     
   12140 OW          22.3370    30.2100   -62.0160 OW            1 RES     
   12141 HW1         22.4560    30.6410   -62.9090 HW1           1 RES     
   12142 HW2         21.6670    30.7270   -61.4820 HW2           1 RES     
   12143 OW          25.9790    36.1030   -60.7510 OW            1 RES     
   12144 HW1         25.2450    36.7810   -60.7880 HW1           1 RES     
   12145 HW2         26.8640    36.5680   -60.7890 HW2           1 RES     
   12146 OW          32.4080    23.5650   -72.5240 OW            1 RES     
   12147 HW1         32.7430    22.8530   -71.9070 HW1           1 RES     
   12148 HW2         32.4750    23.2450   -73.4700 HW2           1 RES     
   12149 OW           0.6210     5.5630   -70.9380 OW            1 RES     
   12150 HW1          0.6610     5.8540   -71.8930 HW1           1 RES     
   12151 HW2          0.7160     4.5680   -70.8880 HW2           1 RES     
   12152 OW          31.2300    11.2870   -68.4570 OW            1 RES     
   12153 HW1         31.9640    11.6000   -67.8550 HW1           1 RES     
   12154 HW2         30.3700    11.7220   -68.1890 HW2           1 RES     
   12155 OW          14.9140    41.7100   -58.7730 OW            1 RES     
   12156 HW1         14.1720    42.2160   -59.2110 HW1           1 RES     
   12157 HW2         15.7890    42.1380   -58.9980 HW2           1 RES     
   12158 OW           2.9980    43.2740   -65.9300 OW            1 RES     
   12159 HW1          3.3200    42.6570   -66.6470 HW1           1 RES     
   12160 HW2          2.1730    42.8960   -65.5100 HW2           1 RES     
   12161 OW          29.7950    -2.5530   -65.3140 OW            1 RES     
   12162 HW1         28.9950    -2.9070   -64.8310 HW1           1 RES     
   12163 HW2         30.3670    -3.3150   -65.6170 HW2           1 RES     
   12164 OW           8.0320     9.9560   -71.7000 OW            1 RES     
   12165 HW1          7.9700     9.2940   -72.4450 HW1           1 RES     
   12166 HW2          8.1820    10.8700   -72.0770 HW2           1 RES     
   12167 OW          25.0640    14.5160   -67.1610 OW            1 RES     
   12168 HW1         24.3190    13.8590   -67.2650 HW1           1 RES     
   12169 HW2         24.8420    15.3550   -67.6580 HW2           1 RES     
   12170 OW          31.9540    38.8120   -69.8180 OW            1 RES     
   12171 HW1         32.7990    39.3200   -69.9830 HW1           1 RES     
   12172 HW2         31.2210    39.4510   -69.5830 HW2           1 RES     
   12173 OW          19.2880    34.1060   -64.2450 OW            1 RES     
   12174 HW1         18.4450    34.6340   -64.1560 HW1           1 RES     
   12175 HW2         20.0760    34.7140   -64.1440 HW2           1 RES     
   12176 OW          24.8500    29.6390   -64.0490 OW            1 RES     
   12177 HW1         23.9190    29.3040   -63.9040 HW1           1 RES     
   12178 HW2         24.8460    30.6390   -64.0660 HW2           1 RES     
   12179 OW          16.1550    25.5780   -62.0770 OW            1 RES     
   12180 HW1         16.6100    26.1810   -62.7310 HW1           1 RES     
   12181 HW2         15.4850    26.1010   -61.5500 HW2           1 RES     
   12182 OW          13.9580    19.9680   -67.6620 OW            1 RES     
   12183 HW1         14.9220    19.7050   -67.6690 HW1           1 RES     
   12184 HW2         13.3890    19.1480   -67.5940 HW2           1 RES     
   12185 OW          18.3530    36.8320   -62.3020 OW            1 RES     
   12186 HW1         18.7170    37.5460   -61.7050 HW1           1 RES     
   12187 HW2         19.0460    36.1240   -62.4380 HW2           1 RES     
   12188 OW          33.3630    41.1680   -61.2900 OW            1 RES     
   12189 HW1         33.5110    42.1450   -61.4390 HW1           1 RES     
   12190 HW2         34.1610    40.7750   -60.8330 HW2           1 RES     
   12191 OW          13.2910    12.6470   -73.2400 OW            1 RES     
   12192 HW1         12.8900    12.0240   -73.9110 HW1           1 RES     
   12193 HW2         13.9850    12.1620   -72.7070 HW2           1 RES     
   12194 OW          41.8900    11.2240   -63.5240 OW            1 RES     
   12195 HW1         42.8500    10.9530   -63.5890 HW1           1 RES     
   12196 HW2         41.8180    12.2190   -63.5990 HW2           1 RES     
   12197 OW          17.2440    -3.9240   -68.4210 OW            1 RES     
   12198 HW1         18.1440    -4.2730   -68.6790 HW1           1 RES     
   12199 HW2         16.9740    -4.3150   -67.5410 HW2           1 RES     
   12200 OW          20.5420     0.8220   -68.0260 OW            1 RES     
   12201 HW1         19.5820     0.9560   -67.7810 HW1           1 RES     
   12202 HW2         20.6900    -0.1330   -68.2840 HW2           1 RES     
   12203 OW          -0.6990     0.6870   -60.9490 OW            1 RES     
   12204 HW1         -1.3280     1.0870   -60.2850 HW1           1 RES     
   12205 HW2         -1.0580     0.8220   -61.8730 HW2           1 RES     
   12206 OW          42.3750    19.0340   -61.7260 OW            1 RES     
   12207 HW1         43.3380    19.2920   -61.7960 HW1           1 RES     
   12208 HW2         42.2700    18.0680   -61.9620 HW2           1 RES     
   12209 OW          -0.4350    31.7970   -67.0070 OW            1 RES     
   12210 HW1          0.3230    31.3680   -67.4960 HW1           1 RES     
   12211 HW2         -1.2850    31.6530   -67.5160 HW2           1 RES     
   12212 OW          -4.2120    16.3490   -73.9140 OW            1 RES     
   12213 HW1         -4.6700    17.2300   -74.0330 HW1           1 RES     
   12214 HW2         -4.8970    15.6310   -73.7910 HW2           1 RES     
   12215 OW          29.4740    32.8480   -73.9140 OW            1 RES     
   12216 HW1         30.4220    32.6480   -74.1610 HW1           1 RES     
   12217 HW2         29.3040    32.5510   -72.9740 HW2           1 RES     
   12218 OW          20.9690    35.2700   -74.0890 OW            1 RES     
   12219 HW1         19.9840    35.1180   -74.1620 HW1           1 RES     
   12220 HW2         21.1480    35.9900   -73.4180 HW2           1 RES     
   12221 OW           0.3620    36.1650   -70.1950 OW            1 RES     
   12222 HW1          0.3600    35.2710   -70.6430 HW1           1 RES     
   12223 HW2         -0.5800    36.4730   -70.0600 HW2           1 RES     
   12224 OW          -0.9180    -4.2710   -66.0990 OW            1 RES     
   12225 HW1         -1.0290    -4.3170   -65.1070 HW1           1 RES     
   12226 HW2          0.0540    -4.3150   -66.3290 HW2           1 RES     
   12227 OW          12.1050    -0.6990   -66.0190 OW            1 RES     
   12228 HW1         12.0720     0.2090   -66.4360 HW1           1 RES     
   12229 HW2         12.7700    -1.2660   -66.5060 HW2           1 RES     
   12230 OW          40.5860    -0.7730   -63.3560 OW            1 RES     
   12231 HW1         41.0810    -1.6260   -63.1970 HW1           1 RES     
   12232 HW2         39.6680    -0.8420   -62.9650 HW2           1 RES     
   12233 OW          -4.3370    27.8830   -59.7690 OW            1 RES     
   12234 HW1         -3.5530    28.1340   -59.2020 HW1           1 RES     
   12235 HW2         -4.5910    28.6560   -60.3500 HW2           1 RES     
   12236 OW          29.2140    33.4880   -68.3330 OW            1 RES     
   12237 HW1         30.1380    33.1070   -68.3320 HW1           1 RES     
   12238 HW2         29.0200    33.8940   -69.2260 HW2           1 RES     
   12239 OW           3.1910     5.3000   -67.8750 OW            1 RES     
   12240 HW1          3.9200     4.6220   -67.9720 HW1           1 RES     
   12241 HW2          2.5020     5.1530   -68.5850 HW2           1 RES     
   12242 OW          25.3930     5.9990   -68.1090 OW            1 RES     
   12243 HW1         25.9810     6.4140   -67.4160 HW1           1 RES     
   12244 HW2         24.6760     6.6470   -68.3690 HW2           1 RES     
   12245 OW          26.3000     2.4370   -59.4210 OW            1 RES     
   12246 HW1         25.8200     2.3290   -58.5520 HW1           1 RES     
   12247 HW2         26.1090     1.6510   -60.0090 HW2           1 RES     
   12248 OW          19.0720    36.8310   -64.8280 OW            1 RES     
   12249 HW1         18.4790    37.5080   -64.3920 HW1           1 RES     
   12250 HW2         20.0230    37.0080   -64.5730 HW2           1 RES     
   12251 OW          16.3410    14.9060   -66.8700 OW            1 RES     
   12252 HW1         17.2870    15.2280   -66.8430 HW1           1 RES     
   12253 HW2         15.8310    15.3040   -66.1070 HW2           1 RES     
   12254 OW          39.9520     2.6270   -60.8870 OW            1 RES     
   12255 HW1         40.6820     1.9550   -61.0060 HW1           1 RES     
   12256 HW2         39.1350     2.1740   -60.5310 HW2           1 RES     
   12257 OW           6.5030    34.0250   -59.6000 OW            1 RES     
   12258 HW1          5.9330    33.4300   -59.0340 HW1           1 RES     
   12259 HW2          7.2770    33.5030   -59.9590 HW2           1 RES     
   12260 OW           1.6860    22.8790   -68.6210 OW            1 RES     
   12261 HW1          2.0870    21.9770   -68.7750 HW1           1 RES     
   12262 HW2          2.4150    23.5610   -68.5580 HW2           1 RES     
   12263 OW           0.2990    18.4430   -65.5500 OW            1 RES     
   12264 HW1          0.8190    17.6380   -65.2670 HW1           1 RES     
   12265 HW2          0.9020    19.0780   -66.0340 HW2           1 RES     
   12266 OW          45.2820    25.1730   -71.8900 OW            1 RES     
   12267 HW1         44.3830    24.7980   -72.1130 HW1           1 RES     
   12268 HW2         45.4040    26.0490   -72.3580 HW2           1 RES     
   12269 OW          10.2860    -1.3110   -71.7860 OW            1 RES     
   12270 HW1         11.1370    -1.1350   -72.2800 HW1           1 RES     
   12271 HW2         10.2800    -2.2550   -71.4570 HW2           1 RES     
   12272 OW          20.8120    16.7440   -63.0320 OW            1 RES     
   12273 HW1         21.0300    17.4440   -62.3520 HW1           1 RES     
   12274 HW2         20.9690    15.8370   -62.6400 HW2           1 RES     
   12275 OW           6.8780    -3.7300   -64.0060 OW            1 RES     
   12276 HW1          7.0260    -2.9590   -63.3890 HW1           1 RES     
   12277 HW2          5.8990    -3.9220   -64.0730 HW2           1 RES     
   12278 OW          34.4580    35.0320   -66.4850 OW            1 RES     
   12279 HW1         33.6280    35.5020   -66.1880 HW1           1 RES     
   12280 HW2         34.9830    35.6310   -67.0890 HW2           1 RES     
   12281 OW          39.6760     1.8360   -68.3830 OW            1 RES     
   12282 HW1         39.4520     0.9270   -68.0340 HW1           1 RES     
   12283 HW2         40.4010     2.2400   -67.8240 HW2           1 RES     
   12284 OW          19.2690    -2.8110   -58.7020 OW            1 RES     
   12285 HW1         18.9830    -1.9850   -59.1860 HW1           1 RES     
   12286 HW2         20.2570    -2.7840   -58.5510 HW2           1 RES     
   12287 OW          18.1460    34.5310   -66.9630 OW            1 RES     
   12288 HW1         17.7230    34.1030   -66.1650 HW1           1 RES     
   12289 HW2         18.7790    33.8860   -67.3910 HW2           1 RES     
   12290 OW          40.4640    42.3330   -59.4210 OW            1 RES     
   12291 HW1         39.8980    43.0170   -58.9610 HW1           1 RES     
   12292 HW2         41.4010    42.6740   -59.5000 HW2           1 RES     
   12293 OW          23.9320    13.3860   -60.6040 OW            1 RES     
   12294 HW1         24.2580    14.3230   -60.4830 HW1           1 RES     
   12295 HW2         23.8740    13.1770   -61.5800 HW2           1 RES     
   12296 OW          28.7080     3.4480   -65.9460 OW            1 RES     
   12297 HW1         29.5030     3.8520   -66.3960 HW1           1 RES     
   12298 HW2         29.0070     2.9180   -65.1520 HW2           1 RES     
   12299 OW          38.5790    28.4310   -65.9390 OW            1 RES     
   12300 HW1         39.4610    28.2260   -66.3620 HW1           1 RES     
   12301 HW2         38.6090    28.1880   -64.9690 HW2           1 RES     
   12302 OW          10.3600     0.0280   -69.9480 OW            1 RES     
   12303 HW1         11.2890     0.2880   -70.2090 HW1           1 RES     
   12304 HW2          9.7780     0.8410   -69.9340 HW2           1 RES     
   12305 OW           5.9260    36.4760   -64.0930 OW            1 RES     
   12306 HW1          5.4910    35.7450   -64.6190 HW1           1 RES     
   12307 HW2          5.5260    36.5120   -63.1770 HW2           1 RES     
   12308 OW           7.6440    42.2250   -68.3900 OW            1 RES     
   12309 HW1          8.2640    41.6920   -68.9660 HW1           1 RES     
   12310 HW2          7.8010    43.2010   -68.5450 HW2           1 RES     
   12311 OW          -0.6160    10.6940   -69.8150 OW            1 RES     
   12312 HW1         -0.8810    11.3520   -70.5190 HW1           1 RES     
   12313 HW2         -0.3360     9.8370   -70.2470 HW2           1 RES     
   12314 OW           9.5570    22.8360   -66.7530 OW            1 RES     
   12315 HW1          8.5770    22.8430   -66.9470 HW1           1 RES     
   12316 HW2          9.8330    23.7280   -66.3930 HW2           1 RES     
   12317 OW          11.0880     1.1450   -68.1930 OW            1 RES     
   12318 HW1         12.0240     1.4650   -68.3360 HW1           1 RES     
   12319 HW2         10.4700     1.9300   -68.1480 HW2           1 RES     
   12320 OW          29.5050    11.1110   -60.7930 OW            1 RES     
   12321 HW1         30.3400    10.6030   -61.0040 HW1           1 RES     
   12322 HW2         29.6320    12.0740   -61.0320 HW2           1 RES     
   12323 OW          41.2730    35.4640   -68.7630 OW            1 RES     
   12324 HW1         41.9210    34.9500   -69.3240 HW1           1 RES     
   12325 HW2         40.9050    36.2280   -69.2940 HW2           1 RES     
   12326 OW          33.6220    26.8370   -64.3580 OW            1 RES     
   12327 HW1         33.0520    26.0190   -64.4390 HW1           1 RES     
   12328 HW2         34.4580    26.7150   -64.8930 HW2           1 RES     
   12329 OW          18.1420    38.2150   -74.0550 OW            1 RES     
   12330 HW1         18.8420    37.5030   -74.1070 HW1           1 RES     
   12331 HW2         18.5710    39.1120   -74.1620 HW2           1 RES     
   12332 OW          39.2390    -0.5120   -66.3550 OW            1 RES     
   12333 HW1         38.6160    -0.9620   -66.9940 HW1           1 RES     
   12334 HW2         39.2800    -1.0350   -65.5040 HW2           1 RES     
   12335 OW          -2.4260     2.0520   -68.7300 OW            1 RES     
   12336 HW1         -3.2850     2.5600   -68.6710 HW1           1 RES     
   12337 HW2         -2.4500     1.2800   -68.0940 HW2           1 RES     
   12338 OW           9.4190    42.3860   -71.4800 OW            1 RES     
   12339 HW1          9.2650    42.9200   -70.6490 HW1           1 RES     
   12340 HW2          9.2570    41.4170   -71.2900 HW2           1 RES     
   12341 OW          43.6230    33.5070   -72.2510 OW            1 RES     
   12342 HW1         43.0310    33.7760   -73.0110 HW1           1 RES     
   12343 HW2         43.0630    33.3030   -71.4480 HW2           1 RES     
   12344 OW          15.0900    -0.3700   -67.6760 OW            1 RES     
   12345 HW1         14.2050     0.0810   -67.7840 HW1           1 RES     
   12346 HW2         15.4650    -0.5920   -68.5760 HW2           1 RES     
   12347 OW           3.3820     7.9840   -64.8110 OW            1 RES     
   12348 HW1          3.6920     8.8720   -65.1480 HW1           1 RES     
   12349 HW2          2.5680     8.1080   -64.2430 HW2           1 RES     
   12350 OW          12.0290    13.2220   -58.6800 OW            1 RES     
   12351 HW1         11.0920    13.1040   -59.0070 HW1           1 RES     
   12352 HW2         12.4380    14.0210   -59.1210 HW2           1 RES     
@<TRIPOS>BOND
       1     2904     2905 1
       2     3110     3111 1
       3     3764     3765 1
       4     4594     4579 1
       5     1740     1741 1
       6     2025     2026 1
       7     4475     4476 1
       8     2490     2489 1
       9     4007     4006 1
      10     1453     1454 1
      11     1040     1041 1
      12     8147     8148 1
      13    10145    10146 1
      14     6311     6312 1
      15     8066     8067 1
      16     8309     8310 1
      17     4988     4989 1
      18     5987     5988 1
      19     6068     6069 1
      20     9662     9663 1
      21     5069     5070 1
      22    11615    11617 1
      23     6296     6298 1
      24    12047    12049 1
      25     5297     5299 1
      26     7619     7621 1
      27    12128    12130 1
      28    10211    10213 1
      29     8213     8215 1
      30    11372    11374 1
      31     9536     9538 1
      32     6473     6475 1
      33     2106     2091 1
      34     9542     9543 1
      35      332      334 1
      36     9923     9924 1
      37    10226    10228 1
      38     3394     3395 1
      39     2740     2741 1
      40     2949     2950 1
      41     6707     6709 1
      42     5150     5151 1
      43    10274    10276 1
      44     4643     4644 1
      45     1100     1101 1
      46    10136    10138 1
      47     2527     2528 1
      48     1250     1251 1
      49    11873    11875 1
      50     3705     3706 1
      51     4808     4810 1
      52     4937     4939 1
      53     9362     9363 1
      54     1303     1304 1
      55     1679     1680 1
      56     4543     4542 1
      57     2668     2671 1
      58      198      199 1
      59      846      847 1
      60     2469     2470 1
      61      447      448 1
      62     6029     6031 1
      63     9476     9477 1
      64     7559     7560 1
      65     6857     6858 1
      66     3330     3331 1
      67     4892     4894 1
      68     5858     5859 1
      69     4526     4527 1
      70    11879    11880 1
      71    11501    11502 1
      72     5696     5697 1
      73     4379     4380 1
      74     5036     5038 1
      75     3783     3784 1
      76     3592     3593 1
      77     4174     4160 1
      78     3907     3908 1
      79      895      896 1
      80     8402     8404 1
      81     1378     1377 1
      82     6788     6790 1
      83     6950     6952 1
      84     8003     8005 1
      85    11837    11839 1
      86     5087     5089 1
      87    11999    12001 1
      88     8543     8545 1
      89     5627     5629 1
      90     4152     4153 1
      91     6248     6250 1
      92     4191     4192 1
      93     1610     1609 1
      94      314      315 1
      95    10301    10303 1
      96     8915     8916 1
      97     7007     7008 1
      98     5837     5838 1
      99     3808     3809 1
     100     2651     2652 1
     101     2430     2431 1
     102      134      135 1
     103     3738     3739 1
     104     1600     1579 1
     105     9965     9966 1
     106     2791     2792 1
     107     5288     5290 1
     108     8678     8679 1
     109     6524     6525 1
     110     5201     5202 1
     111    10358    10359 1
     112    12275    12276 1
     113     9197     9198 1
     114    11438    11439 1
     115     5363     5364 1
     116     6362     6363 1
     117      282      283 1
     118     8645     8647 1
     119     4035     4036 1
     120     4267     4268 1
     121    10475    10476 1
     122     5723     5724 1
     123     7538     7539 1
     124    10088    10090 1
     125     3699     3700 1
     126     5024     5025 1
     127     7184     7185 1
     128    12098    12099 1
     129     9101     9102 1
     130    11018    11019 1
     131    10019    10020 1
     132     8939     8940 1
     133    11180    11181 1
     134     5186     5187 1
     135     2327     2326 1
     136     4022     4017 1
     137     1182     1181 1
     138    11609    11610 1
     139     3323     3325 1
     140     2380     2379 1
     141     4214     4199 1
     142     4670     4655 1
     143     2692     2693 1
     144     3979     3980 1
     145     4778     4780 1
     146     2062     2063 1
     147     1828     1829 1
     148     2619     2620 1
     149     8762     8764 1
     150     5522     5524 1
     151     9329     9331 1
     152    11084    11086 1
     153    11246    11248 1
     154    10679    10681 1
     155      185      186 1
     156     4862     4863 1
     157     9446     9448 1
     158     6449     6451 1
     159    11201    11203 1
     160     8366     8368 1
     161     5450     5452 1
     162     7367     7369 1
     163    10283    10285 1
     164    12200    12202 1
     165     9263     9265 1
     166     1643     1644 1
     167      181      182 1
     168      402      403 1
     169     5468     5469 1
     170      193      194 1
     171     2416     2415 1
     172     4147     4148 1
     173     1402     1403 1
     174     6944     6945 1
     175      973      976 1
     176    10202    10203 1
     177     3193     3194 1
     178     1169     1170 1
     179      221      222 1
     180     2075     2076 1
     181     1255     1256 1
     182     2540     2541 1
     183     2839     2840 1
     184    11783    11784 1
     185     2459     2461 1
     186     5222     5223 1
     187     6383     6384 1
     188     6221     6222 1
     189     8570     8571 1
     190     5330     5331 1
     191    10487    10488 1
     192    12134    12135 1
     193      779      780 1
     194    10055    10056 1
     195     6491     6492 1
     196     9107     9108 1
     197     7271     7272 1
     198     7028     7029 1
     199     9269     9270 1
     200     7190     7191 1
     201     7433     7434 1
     202    11024    11025 1
     203     4904     4906 1
     204     1935     1936 1
     205     1337     1338 1
     206      778      777 1
     207     1287     1288 1
     208     2037     2038 1
     209     2121     2122 1
     210     1697     1698 1
     211      180      181 1
     212      831      832 1
     213      271      274 1
     214      555      556 1
     215     4433     4434 1
     216     4286     4287 1
     217     3585     3590 1
     218     3990     3969 1
     219      822      823 1
     220      684      685 1
     221     3366     3367 1
     222    10265    10267 1
     223    10994    10995 1
     224     4196     4197 1
     225      509      508 1
     226    11243    11244 1
     227     2492     2493 1
     228     8501     8502 1
     229      425      426 1
     230      974      976 1
     231     1962     1961 1
     232     1815     1814 1
     233    11690    11692 1
     234     7937     7939 1
     235     5939     5941 1
     236     5246     5248 1
     237     7694     7696 1
     238     2863     2864 1
     239    11528    11530 1
     240     9773     9775 1
     241     4510     4511 1
     242     4660     4661 1
     243    10535    10537 1
     244      814      815 1
     245     1855     1856 1
     246     2002     2003 1
     247     2126     2127 1
     248     6080     6081 1
     249     8159     8160 1
     250    11912    11913 1
     251     1439     1438 1
     252     6323     6324 1
     253     5999     6000 1
     254     5081     5082 1
     255     8078     8079 1
     256     5000     5001 1
     257     8321     8322 1
     258      909      910 1
     259      255      256 1
     260     9836     9837 1
     261    10409    10410 1
     262    11408    11409 1
     263     9491     9492 1
     264    12326    12327 1
     265     9653     9654 1
     266      114      119 1
     267     4811     4812 1
     268    10571    10572 1
     269     7412     7413 1
     270     8654     8655 1
     271     3294     3295 1
     272     6986     6988 1
     273    10280    10282 1
     274     6446     6448 1
     275     6824     6826 1
     276     8363     8365 1
     277    10013    10014 1
     278    11174    11175 1
     279     3616     3617 1
     280     7178     7179 1
     281     3407     3408 1
     282     4061     4062 1
     283     9095     9096 1
     284    11012    11013 1
     285     5018     5019 1
     286    12092    12093 1
     287     1170     1171 1
     288     9011     9012 1
     289     1546     1525 1
     290      792      794 1
     291     5783     5785 1
     292      888      887 1
     293       58       59 1
     294     1784     1785 1
     295     2219     2220 1
     296     2529     2530 1
     297     4489     4490 1
     298     3879     3880 1
     299     2722     2724 1
     300     1484     1485 1
     301     1238     1239 1
     302     7385     7386 1
     303    11660    11662 1
     304    10121    10123 1
     305    11957    11959 1
     306     7664     7666 1
     307    12119    12121 1
     308     9824     9826 1
     309     6287     6289 1
     310     8204     8206 1
     311     6230     6232 1
     312     2965     2966 1
     313     5231     5233 1
     314    12143    12145 1
     315     3248     3247 1
     316    11918    11920 1
     317      123      125 1
     318     9083     9084 1
     319     1240     1241 1
     320     2125     2126 1
     321     7979     7980 1
     322      121      122 1
     323    10478    10480 1
     324    12233    12235 1
     325     5483     5485 1
     326    10397    10399 1
     327     5159     5161 1
     328     6644     6646 1
     329     3603     3604 1
     330     3812     3813 1
     331     3726     3727 1
     332     5321     5323 1
     333     5474     5476 1
     334     8198     8200 1
     335    12080    12082 1
     336     4316     4317 1
     337     3309     3312 1
     338     4466     4467 1
     339     4319     4320 1
     340     3495     3496 1
     341     3286     3287 1
     342     4400     4401 1
     343     3928     3929 1
     344     3710     3711 1
     345     3839     3840 1
     346      891      892 1
     347      237      238 1
     348     4329     4330 1
     349     7280     7282 1
     350    10736    10738 1
     351     5579     5581 1
     352     6740     6742 1
     353     7325     7326 1
     354     7442     7444 1
     355     1034     1036 1
     356     4865     4867 1
     357     3424     3427 1
     358     1438     1417 1
     359     4367     4368 1
     360     2540     2539 1
     361     2207     2208 1
     362     1826     1827 1
     363    10754    10755 1
     364     8837     8838 1
     365    10592    10593 1
     366     5759     5760 1
     367     8675     8676 1
     368    11987    11988 1
     369     6155     6156 1
     370     9989     9990 1
     371     4554     4540 1
     372     7910     7911 1
     373     9746     9747 1
     374     4604     4605 1
     375    11825    11826 1
     376     5912     5913 1
     377     1114     1115 1
     378     3709     3710 1
     379     3094     3096 1
     380     2620     2621 1
     381    11366    11368 1
     382      437      438 1
     383     4225     4224 1
     384     2322     2323 1
     385    12308    12310 1
     386     7733     7735 1
     387     1087     1092 1
     388     7409     7410 1
     389     9980     9981 1
     390     1916     1901 1
     391     5987     5989 1
     392     4290     4275 1
     393     6038     6040 1
     394      813      814 1
     395     4243     4244 1
     396     4399     4400 1
     397     2712     2713 1
     398     9245     9246 1
     399     3566     3567 1
     400     9668     9670 1
     401     9035     9037 1
     402     4799     4800 1
     403     1326     1327 1
     404     9137     9139 1
     405    10892    10894 1
     406    11054    11056 1
     407     9218     9220 1
     408     1314     1315 1
     409     4209     4210 1
     410     4587     4588 1
     411     9056     9058 1
     412     1538     1539 1
     413     6773     6775 1
     414      962      963 1
     415     1878     1863 1
     416      133      134 1
     417    11624    11626 1
     418     1132     1131 1
     419     6452     6454 1
     420    10637    10639 1
     421     3259     3258 1
     422     1596     1597 1
     423     1151     1152 1
     424     3438     3439 1
     425     1497     1498 1
     426     1963     1964 1
     427     2038     2039 1
     428     1966     1967 1
     429      342      343 1
     430     1650     1651 1
     431     1807     1808 1
     432     8351     8353 1
     433    12347    12349 1
     434      229      230 1
     435     6434     6436 1
     436     8891     8893 1
     437     1304     1305 1
     438     5435     5437 1
     439    12185    12187 1
     440    10808    10810 1
     441     5813     5815 1
     442     7127     7128 1
     443      656      657 1
     444     8495     8496 1
     445    10778    10779 1
     446    10574    10575 1
     447     9035     9036 1
     448     8873     8874 1
     449     8861     8862 1
     450    10412    10413 1
     451    11114    11115 1
     452    11156    11157 1
     453     7322     7323 1
     454     4327     4328 1
     455     9548     9549 1
     456     3502     3503 1
     457     3490     3491 1
     458    11966    11967 1
     459     5141     5142 1
     460    10589    10591 1
     461    11636    11638 1
     462     1926     1925 1
     463     1832     1833 1
     464    10292    10293 1
     465      544      541 1
     466     3070     3071 1
     467     4154     4155 1
     468     4229     4230 1
     469     1032     1037 1
     470     1737     1738 1
     471     3555     3556 1
     472     7775     7776 1
     473      726      727 1
     474     5903     5905 1
     475    11543    11545 1
     476    11030    11032 1
     477    11381    11383 1
     478     7196     7198 1
     479     7277     7279 1
     480     4787     4789 1
     481     9113     9115 1
     482     7034     7036 1
     483    11462    11464 1
     484     9545     9547 1
     485     7484     7486 1
     486     1201     1202 1
     487      285      287 1
     488     2278     2279 1
     489    11237    11238 1
     490     7403     7404 1
     491    11561    11563 1
     492     9212     9214 1
     493    11453    11455 1
     494    11210    11212 1
     495      233      234 1
     496     7727     7729 1
     497    11399    11401 1
     498     9644     9646 1
     499     3457     3456 1
     500    11480    11482 1
     501     2807     2808 1
     502     7391     7393 1
     503     6722     6723 1
     504     3252     3253 1
     505     1422     1423 1
     506    12341    12343 1
     507     8507     8509 1
     508     9047     9049 1
     509     8885     8887 1
     510     4144     4145 1
     511     4534     4535 1
     512    11126    11128 1
     513     5429     5431 1
     514    10964    10966 1
     515    10586    10588 1
     516    11804    11805 1
     517      619      618 1
     518      410      409 1
     519     1672     1673 1
     520    11465    11467 1
     521      485      486 1
     522     8765     8767 1
     523     5525     5527 1
     524     7766     7768 1
     525     7928     7930 1
     526    10682    10684 1
     527    11492    11493 1
     528     2135     2136 1
     529     3159     3160 1
     530      313      312 1
     531     3861     3860 1
     532      587      588 1
     533     2277     2278 1
     534      196      197 1
     535     2679     2680 1
     536     3423     3424 1
     537     7976     7978 1
     538     3904     3906 1
     539     1895     1881 1
     540      511      512 1
     541     4215     4216 1
     542     4671     4672 1
     543     2217     2218 1
     544     9011     9013 1
     545     6581     6583 1
     546     3485     3486 1
     547    12176    12177 1
     548       76       77 1
     549     3351     3352 1
     550     2924     2925 1
     551     3684     3685 1
     552      507      508 1
     553     4530     4531 1
     554     3639     3644 1
     555      350      351 1
     556     1480     1481 1
     557     1082     1084 1
     558     3045     3046 1
     559     8429     8430 1
     560     9680     9682 1
     561     2191     2192 1
     562     1852     1853 1
     563     1999     2000 1
     564     9353     9355 1
     565     9917     9918 1
     566     1172     1170 1
     567     3515     3516 1
     568     3082     3083 1
     569     2873     2874 1
     570     3724     3725 1
     571     8912     8913 1
     572     8174     8176 1
     573     8417     8419 1
     574     6338     6340 1
     575     8255     8257 1
     576     6176     6178 1
     577     8339     8340 1
     578    12335    12336 1
     579     5423     5424 1
     580     1645     1646 1
     581    11120    11121 1
     582    10958    10959 1
     583     8663     8664 1
     584     9041     9042 1
     585     8879     8880 1
     586     7124     7125 1
     587     6812     6814 1
     588      692      691 1
     589     9275     9276 1
     590    10118    10119 1
     591     3334     3335 1
     592     3698     3699 1
     593     2901     2902 1
     594     1097     1095 1
     595     1783     1784 1
     596     1863     1864 1
     597     1947     1948 1
     598     2097     2098 1
     599      923      924 1
     600    11882    11883 1
     601     1978     1979 1
     602      815      816 1
     603     3853     3854 1
     604     1325     1326 1
     605     1110     1111 1
     606     3099     3100 1
     607     1137     1138 1
     608    11495    11497 1
     609     2929     2928 1
     610     8387     8389 1
     611     6932     6933 1
     612     7634     7635 1
     613     9389     9390 1
     614    10928    10929 1
     615     7472     7473 1
     616     3483     3484 1
     617     4437     4438 1
     618    10163    10165 1
     619     1282     1283 1
     620      849      850 1
     621     1192     1191 1
     622     9704     9705 1
     623     1455     1456 1
     624     8426     8428 1
     625    11342    11344 1
     626     9425     9427 1
     627     7346     7348 1
     628    11504    11506 1
     629    10181    10183 1
     630     3824     3825 1
     631     2746     2747 1
     632     8264     8266 1
     633     6347     6349 1
     634     2955     2956 1
     635     2958     2959 1
     636     8738     8739 1
     637     6749     6750 1
     638     4033     4034 1
     639      737      738 1
     640      710      711 1
     641     2337     2340 1
     642     3492     3493 1
     643     1466     1469 1
     644      806      807 1
     645       30       31 1
     646     3654     3655 1
     647     1536     1537 1
     648    11552    11553 1
     649     7019     7020 1
     650     2624     2625 1
     651    10328    10329 1
     652     3214     3215 1
     653     1642     1643 1
     654     4627     4626 1
     655     8783     8784 1
     656     8621     8622 1
     657    10538    10539 1
     658     8540     8541 1
     659    10619    10620 1
     660     6947     6948 1
     661     6542     6543 1
     662     5624     5625 1
     663     5543     5544 1
     664     6704     6705 1
     665     8909     8911 1
     666     1192     1189 1
     667     4366     4367 1
     668     4757     4758 1
     669     3800     3805 1
     670     4040     4041 1
     671      214      213 1
     672     7382     7383 1
     673     1292     1293 1
     674     9014     9015 1
     675     4790     4791 1
     676     4838     4839 1
     677     1048     1049 1
     678     4136     4122 1
     679     4345     4331 1
     680     5408     5409 1
     681     4365     4366 1
     682     5519     5521 1
     683     9866     9868 1
     684     8759     8761 1
     685    10676    10678 1
     686     5870     5872 1
     687     7922     7924 1
     688     1618     1619 1
     689     4281     4282 1
     690     1403     1404 1
     691     6194     6196 1
     692     3751     3746 1
     693     4410     4411 1
     694     4263     4264 1
     695     4641     4642 1
     696     1607     1608 1
     697     1389     1390 1
     698      139      140 1
     699     3560     3561 1
     700     9374     9376 1
     701     9194     9196 1
     702     9884     9885 1
     703     5867     5869 1
     704    11105    11107 1
     705    10943    10945 1
     706     7109     7111 1
     707     8864     8866 1
     708     9026     9028 1
     709       39       40 1
     710     9581     9583 1
     711    10862    10864 1
     712    10700    10702 1
     713     1527     1529 1
     714     7916     7917 1
     715     9914     9915 1
     716    11993    11994 1
     717     5918     5919 1
     718     9995     9996 1
     719    11831    11832 1
     720     6161     6162 1
     721     7997     7998 1
     722     9752     9753 1
     723     9629     9630 1
     724     1348     1349 1
     725     4336     4337 1
     726     4636     4637 1
     727      903      904 1
     728     1086     1091 1
     729     4570     4571 1
     730     4772     4774 1
     731     4844     4846 1
     732     2030     2031 1
     733     6401     6402 1
     734    10073    10074 1
     735    12071    12072 1
     736    10316    10317 1
     737     1811     1812 1
     738     8480     8481 1
     739      224      227 1
     740     8237     8238 1
     741     6239     6240 1
     742     5240     5241 1
     743     1507     1508 1
     744     1223     1224 1
     745      544      542 1
     746     6353     6355 1
     747     5378     5379 1
     748     4025     4027 1
     749     2487     2488 1
     750     2162     2163 1
     751     3297     3296 1
     752     3683     3684 1
     753     3152     3157 1
     754     2056     2057 1
     755     1909     1910 1
     756     1463     1464 1
     757     9518     9520 1
     758     2792     2793 1
     759     9356     9358 1
     760     7520     7522 1
     761     7601     7603 1
     762    11354    11356 1
     763     3473     3474 1
     764     9599     9601 1
     765    11597    11599 1
     766     1490     1491 1
     767     1868     1869 1
     768     4066     4067 1
     769     2015     2016 1
     770     9494     9496 1
     771    11552    11554 1
     772     7718     7720 1
     773    11390    11392 1
     774    11471    11473 1
     775     9554     9556 1
     776     9635     9637 1
     777     3080     3081 1
     778     3292     3293 1
     779     9716     9718 1
     780     1489     1490 1
     781      365      366 1
     782    11282    11283 1
     783     4600     4601 1
     784     2881     2882 1
     785     4456     4457 1
     786     4372     4373 1
     787      107      108 1
     788      754      755 1
     789     3586     3589 1
     790     2377     2378 1
     791     4169     4170 1
     792     3660     3661 1
     793     1928     1929 1
     794    12260    12261 1
     795     2934     2935 1
     796     8549     8551 1
     797    12005    12007 1
     798     5633     5635 1
     799     6956     6958 1
     800     6254     6256 1
     801     8009     8011 1
     802     5093     5095 1
     803     4342     4343 1
     804    11843    11845 1
     805    12167    12169 1
     806      545      546 1
     807     1193     1194 1
     808     4078     4077 1
     809     6020     6022 1
     810     2826     2827 1
     811     2882     2887 1
     812     2945     2946 1
     813    11240    11241 1
     814    11078    11079 1
     815     4213     4214 1
     816     9323     9324 1
     817    10916    10917 1
     818     6920     6921 1
     819     2888     2889 1
     820     1552     1553 1
     821     4952     4954 1
     822      259      260 1
     823     2555     2556 1
     824     1812     1813 1
     825     1508     1509 1
     826      616      617 1
     827     1451     1450 1
     828     2250     2251 1
     829     2068     2069 1
     830     3850     3852 1
     831     1332     1333 1
     832    12251    12253 1
     833      276      281 1
     834     2007     2008 1
     835      472      473 1
     836     3360     3361 1
     837     1304     1307 1
     838      656      659 1
     839     2858     2859 1
     840     3681     3682 1
     841     3463     3464 1
     842     3030     3031 1
     843     1384     1385 1
     844     2830     2832 1
     845     9662     9664 1
     846      614      615 1
     847     6533     6535 1
     848     5210     5212 1
     849    10286    10288 1
     850     8801     8803 1
     851     5642     5644 1
     852     1548     1549 1
     853    10556    10558 1
     854     6965     6967 1
     855     8558     8560 1
     856     5453     5455 1
     857     1378     1379 1
     858     7739     7740 1
     859     2575     2576 1
     860     3229     3230 1
     861     9542     9544 1
     862     3832     3833 1
     863     1857     1843 1
     864     2757     2758 1
     865     9923     9925 1
     866     4018     4021 1
     867     4383     4382 1
     868     2227     2228 1
     869     2311     2312 1
     870     4499     4500 1
     871      128      129 1
     872     1746     1747 1
     873    10736    10737 1
     874     5579     5580 1
     875     6053     6054 1
     876     4025     4026 1
     877     3387     3388 1
     878     2736     2737 1
     879     4496     4497 1
     880     6740     6741 1
     881    11102    11103 1
     882    10160    10161 1
     883     5927     5928 1
     884    11678    11679 1
     885     7925     7926 1
     886     7763     7764 1
     887    11516    11517 1
     888     6011     6013 1
     889     9761     9762 1
     890     7682     7683 1
     891     3091     3092 1
     892     3954     3955 1
     893     2663     2664 1
     894    10802    10803 1
     895     5807     5808 1
     896     8534     8535 1
     897     5618     5619 1
     898    10451    10452 1
     899     6617     6618 1
     900     6779     6780 1
     901     8723     8724 1
     902      575      576 1
     903      251      250 1
     904    11984    11985 1
     905     2354     2355 1
     906     2968     2969 1
     907    11822    11823 1
     908    11741    11742 1
     909     7907     7908 1
     910     6152     6153 1
     911     9743     9744 1
     912     9905     9906 1
     913    11801    11803 1
     914     4314     4315 1
     915      865      868 1
     916     2251     2252 1
     917     1139     1140 1
     918     3548     3549 1
     919     2852     2853 1
     920     2017     2018 1
     921     3981     3982 1
     922      590      591 1
     923     3327     3328 1
     924     4663     4662 1
     925     4754     4756 1
     926     2520     2521 1
     927      277      282 1
     928     2959     2960 1
     929      868      869 1
     930     9428     9430 1
     931       52       51 1
     932     8711     8713 1
     933     3260     3265 1
     934     1871     1872 1
     935     2168     2169 1
     936     7958     7959 1
     937     8120     8121 1
     938     9875     9876 1
     939     8039     8040 1
     940     5123     5124 1
     941     6203     6204 1
     942     9956     9957 1
     943     6122     6123 1
     944     8069     8071 1
     945     6314     6316 1
     946     4991     4993 1
     947    10148    10150 1
     948     2604     2605 1
     949     5072     5074 1
     950     8150     8152 1
     951     8312     8314 1
     952     5990     5992 1
     953     6071     6073 1
     954      620      621 1
     955      623      624 1
     956      611      612 1
     957     7292     7294 1
     958     7454     7456 1
     959     5150     5152 1
     960     3600     3601 1
     961     7889     7890 1
     962     4748     4749 1
     963     7007     7009 1
     964      894      895 1
     965     6785     6786 1
     966    11924    11926 1
     967     6173     6175 1
     968     7010     7012 1
     969    10844    10846 1
     970     8090     8092 1
     971     5687     5689 1
     972    11330    11332 1
     973     6335     6337 1
     974     5849     5851 1
     975     6848     6850 1
     976     3018     2997 1
     977     4913     4915 1
     978     9800     9801 1
     979     8678     8680 1
     980     3323     3324 1
     981     2344     2345 1
     982     2820     2821 1
     983     5723     5725 1
     984     2031     2032 1
     985     1913     1914 1
     986     4396     4395 1
     987     4249     4248 1
     988     9767     9768 1
     989     1708     1709 1
     990      898      877 1
     991     2472     2473 1
     992     3578     3577 1
     993     8855     8856 1
     994     5777     5778 1
     995     2410     2411 1
     996    11150    11151 1
     997     1524     1525 1
     998     7316     7317 1
     999    10772    10773 1
    1000      653      652 1
    1001     8693     8694 1
    1002    10610    10611 1
    1003     5816     5818 1
    1004      613      614 1
    1005     2711     2712 1
    1006    11609    11611 1
    1007     1297     1300 1
    1008     4658     4659 1
    1009     3202     3204 1
    1010     3228     3229 1
    1011      899      900 1
    1012     4814     4815 1
    1013    12317    12319 1
    1014     7469     7471 1
    1015     4543     4544 1
    1016     4396     4397 1
    1017     3142     3143 1
    1018     3136     3137 1
    1019     4002     4003 1
    1020     4249     4250 1
    1021    10379    10381 1
    1022     6869     6871 1
    1023     5384     5386 1
    1024     1529     1530 1
    1025      457      458 1
    1026    10217    10219 1
    1027      516      517 1
    1028      301      302 1
    1029     3856     3858 1
    1030     8948     8950 1
    1031     4341     4342 1
    1032     4479     4480 1
    1033       19       20 1
    1034     4591     4592 1
    1035     2799     2800 1
    1036     3435     3436 1
    1037     3880     3881 1
    1038     4835     4837 1
    1039     5468     5470 1
    1040     9875     9877 1
    1041      705      706 1
    1042    10202    10204 1
    1043     3188     3189 1
    1044     8765     8766 1
    1045     5525     5526 1
    1046     7928     7929 1
    1047     7766     7767 1
    1048    10682    10683 1
    1049     4757     4759 1
    1050     3269     3270 1
    1051     3272     3273 1
    1052     4632     4617 1
    1053     7286     7287 1
    1054     5585     5586 1
    1055    10742    10743 1
    1056     6746     6747 1
    1057     7448     7449 1
    1058     1979     1980 1
    1059     3154     3157 1
    1060    11783    11785 1
    1061     3541     3542 1
    1062     3073     3074 1
    1063     6566     6567 1
    1064     4715     4716 1
    1065    10124    10125 1
    1066     2634     2635 1
    1067     4607     4608 1
    1068     2462     2463 1
    1069     1932     1933 1
    1070     2301     2302 1
    1071     2079     2080 1
    1072     9902     9904 1
    1073      290      289 1
    1074     3532     3535 1
    1075     2564     2565 1
    1076      423      424 1
    1077      671      672 1
    1078     2050     2051 1
    1079     1953     1954 1
    1080      245      246 1
    1081     7691     7693 1
    1082    11687    11689 1
    1083     5936     5938 1
    1084     3897     3898 1
    1085     8852     8854 1
    1086    10607    10609 1
    1087    10769    10771 1
    1088     4458     4459 1
    1089     5774     5776 1
    1090     4289     4290 1
    1091    11306    11307 1
    1092    11243    11245 1
    1093     8501     8503 1
    1094    11192    11193 1
    1095    12098    12100 1
    1096     7184     7186 1
    1097     9101     9103 1
    1098     5024     5026 1
    1099      522      524 1
    1100       98       99 1
    1101      957      958 1
    1102    11018    11020 1
    1103    10019    10021 1
    1104      969      970 1
    1105     3402     3403 1
    1106     2763     2764 1
    1107     4682     4683 1
    1108     5414     5415 1
    1109     1669     1670 1
    1110     1451     1452 1
    1111     1015     1016 1
    1112     1769     1770 1
    1113     3878     3879 1
    1114     3624     3625 1
    1115      445      446 1
    1116     4063     4064 1
    1117     4111     4112 1
    1118     2776     2779 1
    1119     2404     2403 1
    1120     2042     2043 1
    1121     2686     2685 1
    1122     6599     6600 1
    1123     8516     8517 1
    1124     7517     7518 1
    1125    11351    11352 1
    1126     5600     5601 1
    1127     2238     2239 1
    1128    10433    10434 1
    1129     9596     9597 1
    1130     1936     1937 1
    1131     6761     6762 1
    1132      907      908 1
    1133     4011     4014 1
    1134     1290     1291 1
    1135      636      637 1
    1136     2691     2692 1
    1137     3766     3767 1
    1138     4940     4942 1
    1139     3046     3048 1
    1140     1714     1715 1
    1141     3020     3021 1
    1142     1496     1497 1
    1143     2046     2047 1
    1144     4853     4854 1
    1145     4465     4466 1
    1146     1519     1520 1
    1147     2086     2087 1
    1148     1570     1571 1
    1149     3825     3826 1
    1150     3171     3172 1
    1151     6983     6984 1
    1152     3915     3916 1
    1153     6188     6190 1
    1154      796      797 1
    1155     3452     3454 1
    1156     1574     1577 1
    1157     1311     1312 1
    1158     4390     4391 1
    1159     4679     4680 1
    1160     5375     5376 1
    1161     2621     2623 1
    1162     2458     2459 1
    1163      528      529 1
    1164      749      750 1
    1165     2650     2651 1
    1166     7385     7387 1
    1167    10355    10356 1
    1168     1954     1939 1
    1169     6074     6076 1
    1170    10151    10153 1
    1171     6317     6319 1
    1172     8072     8074 1
    1173     8153     8155 1
    1174     4994     4996 1
    1175      966      967 1
    1176     9293     9295 1
    1177     1852     1851 1
    1178     5993     5995 1
    1179      948      949 1
    1180     1369     1370 1
    1181     2787     2788 1
    1182     9083     9085 1
    1183     4115     4114 1
    1184      926      928 1
    1185      391      392 1
    1186     7028     7030 1
    1187     7190     7192 1
    1188     2228     2229 1
    1189     9107     9109 1
    1190     2230     2231 1
    1191     3657     3658 1
    1192     7271     7273 1
    1193     2582     2583 1
    1194     9269     9271 1
    1195     7433     7435 1
    1196     1501     1500 1
    1197     9572     9573 1
    1198     7655     7656 1
    1199     8006     8007 1
    1200     7250     7251 1
    1201     6251     6252 1
    1202     5657     5658 1
    1203    11651    11652 1
    1204     2782     2783 1
    1205    12002    12003 1
    1206     7088     7089 1
    1207     9251     9253 1
    1208     2443     2444 1
    1209     2652     2653 1
    1210     2867     2868 1
    1211     3079     3080 1
    1212     2066     2052 1
    1213     7553     7555 1
    1214     5690     5692 1
    1215     6851     6853 1
    1216     3798     3799 1
    1217     9470     9472 1
    1218     5852     5854 1
    1219     2983     2984 1
    1220    10847    10849 1
    1221    11501    11503 1
    1222     3619     3620 1
    1223     2366     2367 1
    1224     9614     9616 1
    1225     3192     3193 1
    1226     3694     3695 1
    1227      151      152 1
    1228     2422     2423 1
    1229      154      155 1
    1230     1792     1793 1
    1231     2675     2677 1
    1232     1006      985 1
    1233     1792     1791 1
    1234     4233     4218 1
    1235     3236     3237 1
    1236     4883     4884 1
    1237     2677     2678 1
    1238     3985     3986 1
    1239     1797     1798 1
    1240     1249     1250 1
    1241     2240     2241 1
    1242       88       67 1
    1243     1825     1826 1
    1244     2783     2784 1
    1245     4156     4157 1
    1246     4612     4613 1
    1247     3431     3432 1
    1248     5378     5380 1
    1249     7631     7632 1
    1250     1157     1156 1
    1251      953      954 1
    1252     7421     7422 1
    1253     5000     5002 1
    1254     8159     8161 1
    1255    11912    11914 1
    1256     1108     1109 1
    1257     5999     6001 1
    1258     6080     6082 1
    1259     5081     5083 1
    1260     8078     8080 1
    1261     8321     8323 1
    1262        7        8 1
    1263     3613     3614 1
    1264     1431     1432 1
    1265     2046     2045 1
    1266    10835    10837 1
    1267     3382     3383 1
    1268      113      114 1
    1269     3385     3386 1
    1270     9320     9321 1
    1271     4193     4179 1
    1272     7547     7549 1
    1273      876      871 1
    1274     1321     1322 1
    1275     1109     1110 1
    1276     3526     3528 1
    1277     1112     1113 1
    1278     3605     3606 1
    1279     7127     7129 1
    1280     3069     3070 1
    1281    10088    10089 1
    1282      789      788 1
    1283    12254    12256 1
    1284     2291     2292 1
    1285     2164     2165 1
    1286     5141     5143 1
    1287      268      269 1
    1288      630      631 1
    1289     2407     2408 1
    1290     3927     3928 1
    1291     3755     3756 1
    1292      407      408 1
    1293     1270     1271 1
    1294    12152    12153 1
    1295     4733     4734 1
    1296     1929     1930 1
    1297      732      733 1
    1298     1743     1729 1
    1299     3634     3636 1
    1300     3649     3650 1
    1301     7775     7777 1
    1302     2786     2785 1
    1303     2486     2487 1
    1304    11810    11812 1
    1305     3893     3894 1
    1306    11972    11974 1
    1307     7895     7897 1
    1308     9731     9733 1
    1309     9893     9895 1
    1310     6140     6142 1
    1311    11729    11731 1
    1312     4608     4609 1
    1313     1600     1601 1
    1314     4344     4345 1
    1315     1619     1620 1
    1316      308      309 1
    1317     3653     3652 1
    1318      992      993 1
    1319     6722     6724 1
    1320     3204     3205 1
    1321     2645     2646 1
    1322     3523     3524 1
    1323     5324     5325 1
    1324     1426     1427 1
    1325     2672     2673 1
    1326     1211     1212 1
    1327    10592    10594 1
    1328     3485     3487 1
    1329    10754    10756 1
    1330     2370     2349 1
    1331     3442     3443 1
    1332     8837     8839 1
    1333     5759     5761 1
    1334     8675     8677 1
    1335     8549     8550 1
    1336     5633     5634 1
    1337     6956     6957 1
    1338    12167    12168 1
    1339    11843    11844 1
    1340     6254     6255 1
    1341    12005    12006 1
    1342     8009     8010 1
    1343     5093     5094 1
    1344    10628    10629 1
    1345     8963     8964 1
    1346     2633     2634 1
    1347     2848     2849 1
    1348      867      868 1
    1349     6416     6418 1
    1350     6626     6627 1
    1351     8372     8373 1
    1352     8561     8562 1
    1353     5645     5646 1
    1354     5456     5457 1
    1355     6968     6969 1
    1356     2039     2040 1
    1357     6455     6456 1
    1358    10289    10290 1
    1359     6806     6807 1
    1360     1808     1809 1
    1361     3238     3239 1
    1362     3180     3181 1
    1363     2666     2671 1
    1364     3384     3383 1
    1365      879      880 1
    1366     3692     3697 1
    1367      552      553 1
    1368      695      696 1
    1369     1301     1300 1
    1370     1876     1875 1
    1371      814      812 1
    1372     2180     2166 1
    1373     3792     3793 1
    1374     9722     9724 1
    1375     2686     2687 1
    1376     3973     3974 1
    1377     4436     4437 1
    1378      302      303 1
    1379     1589     1590 1
    1380     2137     2138 1
    1381     7223     7225 1
    1382    11138    11140 1
    1383     6872     6874 1
    1384     5792     5794 1
    1385    10787    10789 1
    1386     7304     7306 1
    1387    11219    11221 1
    1388     8951     8953 1
    1389     1447     1448 1
    1390     5711     5713 1
    1391     3970     3971 1
    1392      115      116 1
    1393     4769     4771 1
    1394      149      150 1
    1395     4928     4929 1
    1396      709      710 1
    1397     3150     3147 1
    1398     8861     8863 1
    1399     7322     7324 1
    1400     2591     2592 1
    1401    11156    11158 1
    1402    10778    10780 1
    1403    10367    10368 1
    1404    10616    10618 1
    1405     8699     8701 1
    1406     2665     2666 1
    1407     3579     3582 1
    1408     4296     4297 1
    1409     1425     1426 1
    1410     1446     1447 1
    1411     2759     2758 1
    1412     6269     6270 1
    1413    12299    12300 1
    1414     1386     1387 1
    1415     4228     4229 1
    1416      101      102 1
    1417     3305     3306 1
    1418     3520     3521 1
    1419     3207     3212 1
    1420     9665     9666 1
    1421     3266     3267 1
    1422     2951     2952 1
    1423     2656     2657 1
    1424     4564     4565 1
    1425     8090     8091 1
    1426     1194     1199 1
    1427     3680     3681 1
    1428     3026     3027 1
    1429     1354     1355 1
    1430     1421     1422 1
    1431    12296    12298 1
    1432    11564    11566 1
    1433    11348    11349 1
    1434     9512     9513 1
    1435     7514     7515 1
    1436     3550     3551 1
    1437     7595     7596 1
    1438     2896     2897 1
    1439     9593     9594 1
    1440    11591    11592 1
    1441     9350     9351 1
    1442     1391     1390 1
    1443      141      140 1
    1444     8945     8947 1
    1445     3316     3318 1
    1446      427      428 1
    1447     3203     3204 1
    1448     1505     1506 1
    1449     1893     1894 1
    1450     9275     9277 1
    1451     1052     1053 1
    1452     1809     1810 1
    1453     4252     4237 1
    1454     4359     4358 1
    1455     4590     4589 1
    1456     2664     2665 1
    1457    11183    11185 1
    1458     1313     1314 1
    1459     4877     4878 1
    1460     4652     4653 1
    1461     4008     4009 1
    1462     3563     3564 1
    1463     2936     2941 1
    1464     3996     3997 1
    1465     3584     3589 1
    1466     3700     3701 1
    1467       85       86 1
    1468       73       74 1
    1469     2700     2701 1
    1470      266      267 1
    1471     9998    10000 1
    1472     1718     1719 1
    1473     4783     4781 1
    1474     1354     1351 1
    1475     1622     1624 1
    1476     9503     9505 1
    1477     8504     8506 1
    1478    10421    10423 1
    1479      900      901 1
    1480    12338    12340 1
    1481    11420    11422 1
    1482     8342     8344 1
    1483    10583    10585 1
    1484     7424     7426 1
    1485     9665     9667 1
    1486     9698     9699 1
    1487     4132     4133 1
    1488     8198     8199 1
    1489     9704     9706 1
    1490      520      499 1
    1491     1503     1504 1
    1492     1891     1892 1
    1493     4958     4960 1
    1494     3154     3155 1
    1495     1898     1899 1
    1496     8252     8253 1
    1497     6848     6849 1
    1498    11762    11763 1
    1499    10844    10845 1
    1500    11924    11925 1
    1501     5687     5688 1
    1502     5849     5850 1
    1503     9413     9414 1
    1504     8414     8415 1
    1505    11330    11331 1
    1506     9455     9457 1
    1507      473      474 1
    1508     3527     3528 1
    1509     4853     4855 1
    1510     6602     6603 1
    1511    11933    11934 1
    1512    10436    10437 1
    1513     5603     5604 1
    1514     9221     9222 1
    1515     8519     8520 1
    1516     6764     6765 1
    1517    10976    10977 1
    1518     9059     9060 1
    1519     1136     1138 1
    1520     2861     2862 1
    1521     2142     2128 1
    1522    10955    10957 1
    1523     4119     4120 1
    1524    10712    10714 1
    1525     5879     5881 1
    1526    11117    11119 1
    1527     6800     6801 1
    1528     5639     5640 1
    1529     6962     6963 1
    1530     8555     8556 1
    1531    10634    10635 1
    1532      126      127 1
    1533    11015    11016 1
    1534     3840     3841 1
    1535      782      783 1
    1536    10328    10330 1
    1537     3532     3534 1
    1538     7376     7377 1
    1539    10118    10120 1
    1540     2840     2841 1
    1541     4955     4956 1
    1542     1934     1935 1
    1543     1763     1764 1
    1544     3816     3817 1
    1545     2956     2957 1
    1546     1456     1457 1
    1547     6038     6039 1
    1548    10670    10671 1
    1549     5513     5514 1
    1550     4232     4233 1
    1551      191      192 1
    1552     4817     4819 1
    1553    11171    11172 1
    1554     5528     5529 1
    1555    11009    11010 1
    1556     8768     8769 1
    1557     7175     7176 1
    1558     8930     8931 1
    1559     2707     2708 1
    1560     9092     9093 1
    1561     9014     9016 1
    1562    10685    10686 1
    1563    10094    10096 1
    1564     6935     6937 1
    1565     6098     6100 1
    1566     9932     9934 1
    1567     7853     7855 1
    1568     3240     3241 1
    1569     3802     3804 1
    1570    10931    10933 1
    1571     3031     3032 1
    1572     2938     2939 1
    1573       66       67 1
    1574       90       91 1
    1575    11285    11286 1
    1576    11756    11758 1
    1577     1712     1713 1
    1578      637      638 1
    1579     1649     1650 1
    1580     1050     1051 1
    1581     9842     9843 1
    1582      434      436 1
    1583      382      383 1
    1584     3609     3610 1
    1585     3370     3371 1
    1586     2623     2624 1
    1587     3704     3705 1
    1588     1488     1489 1
    1589      797      798 1
    1590     4535     4521 1
    1591     2300     2301 1
    1592      877      878 1
    1593     4060     4061 1
    1594     3412     3413 1
    1595      464      465 1
    1596     8300     8302 1
    1597     1099     1100 1
    1598     1006     1007 1
    1599     2695     2696 1
    1600      697      698 1
    1601     8063     8065 1
    1602    10142    10144 1
    1603     4985     4987 1
    1604     6308     6310 1
    1605     8144     8146 1
    1606     6065     6067 1
    1607     5066     5068 1
    1608     8306     8308 1
    1609     5984     5986 1
    1610       67       68 1
    1611     3525     3528 1
    1612      436      437 1
    1613     1651     1652 1
    1614    12050    12051 1
    1615     5219     5220 1
    1616     8459     8460 1
    1617     6380     6381 1
    1618     6218     6219 1
    1619     4623     4624 1
    1620     8216     8217 1
    1621    12131    12132 1
    1622     1095     1096 1
    1623    10052    10053 1
    1624      491      492 1
    1625     2023     2024 1
    1626     2328     2329 1
    1627      654      659 1
    1628     1060     1039 1
    1629     1410     1415 1
    1630     1195     1200 1
    1631     3984     3983 1
    1632     1408     1409 1
    1633    11870    11872 1
    1634     4175     4176 1
    1635     2505     2506 1
    1636      759      760 1
    1637      830      831 1
    1638      905      906 1
    1639    11486    11487 1
    1640     2706     2707 1
    1641     1559     1560 1
    1642     3570     3571 1
    1643     8408     8409 1
    1644     9779     9780 1
    1645    10952    10954 1
    1646     4751     4752 1
    1647     4847     4848 1
    1648     4566     4567 1
    1649     4419     4420 1
    1650     2912     2914 1
    1651     2654     2655 1
    1652     1160     1161 1
    1653     3653     3654 1
    1654     2578     2579 1
    1655     3444     3445 1
    1656     3865     3866 1
    1657       44       45 1
    1658      990      991 1
    1659     8621     8623 1
    1660     5624     5626 1
    1661     6947     6949 1
    1662     6704     6706 1
    1663     8540     8542 1
    1664     5543     5545 1
    1665     6542     6544 1
    1666     8783     8785 1
    1667     2081     2082 1
    1668    10538    10540 1
    1669     4700     4701 1
    1670     1093     1094 1
    1671    11351    11353 1
    1672     6113     6114 1
    1673     6809     6811 1
    1674     4733     4735 1
    1675     4555     4556 1
    1676     4348     4349 1
    1677     3917     3918 1
    1678    12311    12312 1
    1679     2421     2422 1
    1680     3262     3263 1
    1681     1817     1818 1
    1682     1520     1523 1
    1683     3543     3542 1
    1684     6341     6342 1
    1685     8258     8259 1
    1686    12254    12255 1
    1687     6179     6180 1
    1688    10337    10338 1
    1689    11336    11337 1
    1690    10175    10176 1
    1691     9419     9420 1
    1692    11498    11499 1
    1693     7340     7341 1
    1694     3544     3545 1
    1695     4629     4630 1
    1696     2715     2718 1
    1697     2329     2330 1
    1698     4148     4149 1
    1699     3256     3258 1
    1700     1567     1570 1
    1701     1788     1789 1
    1702     1583     1584 1
    1703     2287     2288 1
    1704    10022    10024 1
    1705     2610     2609 1
    1706     6143     6145 1
    1707     6089     6091 1
    1708    11813    11815 1
    1709    11921    11923 1
    1710     9896     9898 1
    1711     7979     7981 1
    1712     8087     8089 1
    1713     7844     7846 1
    1714     1226     1227 1
    1715    11975    11977 1
    1716     9401     9403 1
    1717     4642     4643 1
    1718     1224     1225 1
    1719    11831    11833 1
    1720     7997     7999 1
    1721     6161     6163 1
    1722     9995     9997 1
    1723    11993    11995 1
    1724     3455     3456 1
    1725      525      526 1
    1726     3900     3901 1
    1727     7916     7918 1
    1728     5918     5920 1
    1729      970      971 1
    1730     3246     3247 1
    1731     4302     4303 1
    1732      640      641 1
    1733     1228     1229 1
    1734      405      406 1
    1735     4347     4332 1
    1736     5240     5242 1
    1737    10073    10075 1
    1738    12071    12073 1
    1739     8237     8239 1
    1740     8480     8482 1
    1741     6239     6241 1
    1742     6401     6403 1
    1743    10316    10318 1
    1744    12152    12154 1
    1745     6482     6484 1
    1746     3180     3159 1
    1747     3623     3624 1
    1748     1482     1483 1
    1749      330      335 1
    1750     2243     2244 1
    1751     1250     1252 1
    1752     8225     8227 1
    1753    12059    12061 1
    1754    10304    10306 1
    1755     8525     8527 1
    1756     6470     6472 1
    1757    10934    10935 1
    1758     2869     2868 1
    1759    10865    10867 1
    1760     2368     2367 1
    1761     3125     3124 1
    1762     7544     7545 1
    1763     9785     9786 1
    1764     5951     5952 1
    1765     9380     9381 1
    1766     7787     7788 1
    1767     9461     9462 1
    1768     2587     2588 1
    1769    11702    11703 1
    1770     7625     7626 1
    1771     6032     6033 1
    1772     3960     3957 1
    1773      645      646 1
    1774     1412     1414 1
    1775     4226     4227 1
    1776     3268     3269 1
    1777     5564     5566 1
    1778     6563     6565 1
    1779     4456     4455 1
    1780     1598     1599 1
    1781     4485     4486 1
    1782     6026     6028 1
    1783     8387     8388 1
    1784     3357     3358 1
    1785      263      264 1
    1786     3349     3350 1
    1787     1179     1180 1
    1788     2432     2433 1
    1789      106      107 1
    1790     2438     2439 1
    1791      783      784 1
    1792     3560     3562 1
    1793     7988     7989 1
    1794    11096    11098 1
    1795     7802     7804 1
    1796     9341     9343 1
    1797     6938     6940 1
    1798     9395     9397 1
    1799     7640     7642 1
    1800    11798    11800 1
    1801     6047     6049 1
    1802     2230     2229 1
    1803    10934    10936 1
    1804     4204     4205 1
    1805     8186     8187 1
    1806      300      301 1
    1807     9941     9942 1
    1808      509      510 1
    1809    11963    11965 1
    1810     2727     2728 1
    1811     1971     1957 1
    1812    11078    11080 1
    1813     6920     6922 1
    1814     3227     3228 1
    1815     9323     9325 1
    1816    10916    10918 1
    1817    11240    11242 1
    1818       29       30 1
    1819     6782     6783 1
    1820     7859     7860 1
    1821     6941     6942 1
    1822    10100    10101 1
    1823     9938     9939 1
    1824     6104     6105 1
    1825     2120     2121 1
    1826    10937    10938 1
    1827     6233     6234 1
    1828    12065    12066 1
    1829     8231     8232 1
    1830    10310    10311 1
    1831     8474     8475 1
    1832     5234     5235 1
    1833     6395     6396 1
    1834    12146    12147 1
    1835     1418     1419 1
    1836     6476     6477 1
    1837     4493     4492 1
    1838     3175     3174 1
    1839     9563     9564 1
    1840      123      124 1
    1841     1632     1633 1
    1842     2668     2670 1
    1843     4098     4084 1
    1844     3340     3341 1
    1845     1828     1827 1
    1846     2284     2285 1
    1847     1759     1760 1
    1848     2053     2054 1
    1849     1906     1907 1
    1850     3661     3662 1
    1851     4384     4385 1
    1852     1101     1102 1
    1853     4018     4020 1
    1854     7283     7284 1
    1855     7040     7041 1
    1856     9281     9282 1
    1857     9119     9120 1
    1858    11036    11037 1
    1859     7202     7203 1
    1860    12173    12175 1
    1861     7445     7446 1
    1862    11102    11104 1
    1863     7808     7810 1
    1864     9347     9349 1
    1865     7646     7648 1
    1866     3022     3023 1
    1867     3676     3677 1
    1868     4404     4405 1
    1869     3467     3468 1
    1870     6053     6055 1
    1871    11804    11806 1
    1872     6392     6393 1
    1873      368      369 1
    1874    10085    10086 1
    1875     9977     9978 1
    1876     3538     3539 1
    1877     6617     6619 1
    1878    10802    10804 1
    1879    10451    10453 1
    1880     8534     8536 1
    1881     8723     8725 1
    1882     5807     5809 1
    1883     3947     3948 1
    1884     5618     5620 1
    1885     6779     6781 1
    1886     4694     4695 1
    1887     6863     6864 1
    1888    12113    12115 1
    1889     3078     3079 1
    1890     1494     1495 1
    1891      122      123 1
    1892        3        4 1
    1893     1233     1234 1
    1894     1479     1480 1
    1895     1442     1443 1
    1896     4530     4529 1
    1897     2878     2880 1
    1898     3517     3516 1
    1899      350      349 1
    1900     3828     3829 1
    1901     1033     1038 1
    1902     1084     1085 1
    1903     3898     3899 1
    1904     3244     3245 1
    1905     9767     9769 1
    1906     1639     1640 1
    1907     1829     1830 1
    1908     2143     2144 1
    1909    11429    11430 1
    1910     9188     9189 1
    1911     2613     2614 1
    1912     9431     9432 1
    1913     7352     7353 1
    1914    11186    11187 1
    1915     1411     1412 1
    1916     4441     4442 1
    1917    11267    11268 1
    1918    12083    12084 1
    1919    11663    11664 1
    1920     9152     9153 1
    1921    11069    11070 1
    1922     3161     3162 1
    1923     2938     2940 1
    1924      230      231 1
    1925     7667     7668 1
    1926     9584     9585 1
    1927     4223     4224 1
    1928    10907    10908 1
    1929     1952     1938 1
    1930     6461     6462 1
    1931     1776     1777 1
    1932     1660     1659 1
    1933     2073     2074 1
    1934     2953     2954 1
    1935    10832    10834 1
    1936      932      933 1
    1937     1007     1008 1
    1938      450      451 1
    1939     4014     4015 1
    1940     8969     8971 1
    1941    11627    11629 1
    1942     7004     7005 1
    1943     9839     9840 1
    1944     6131     6133 1
    1945     9494     9495 1
    1946     8333     8335 1
    1947    10298    10300 1
    1948     8219     8221 1
    1949    12323    12325 1
    1950    10406    10408 1
    1951    10568    10570 1
    1952     6464     6466 1
    1953     8651     8653 1
    1954     8489     8491 1
    1955     4374     4375 1
    1956     8327     8329 1
    1957     4569     4570 1
    1958      142      121 1
    1959    11192    11194 1
    1960      345      346 1
    1961      999     1000 1
    1962    12038    12040 1
    1963     2973     2974 1
    1964     5414     5416 1
    1965     4561     4562 1
    1966       23       24 1
    1967    11423    11424 1
    1968     5132     5133 1
    1969     8129     8130 1
    1970     7967     7968 1
    1971     6131     6132 1
    1972     7508     7509 1
    1973     7832     7833 1
    1974     2036     2037 1
    1975     7427     7428 1
    1976     8048     8049 1
    1977     3117     3118 1
    1978     5630     5631 1
    1979     2567     2569 1
    1980     9368     9369 1
    1981     3282     3283 1
    1982     3494     3495 1
    1983     4454     4455 1
    1984      105      106 1
    1985      487      490 1
    1986     8192     8193 1
    1987     1592     1593 1
    1988      938      939 1
    1989     8573     8575 1
    1990     5333     5335 1
    1991    10490    10492 1
    1992     7817     7819 1
    1993     7493     7495 1
    1994     6494     6496 1
    1995     1357     1362 1
    1996    12302    12304 1
    1997     1045     1046 1
    1998      612      613 1
    1999      177      178 1
    2000     9176     9178 1
    2001     7259     7261 1
    2002     7097     7099 1
    2003    11849    11851 1
    2004    12011    12013 1
    2005     6260     6262 1
    2006     1594     1595 1
    2007    11306    11308 1
    2008     4452     4453 1
    2009     5099     5101 1
    2010     2991     2996 1
    2011     3398     3400 1
    2012     4531     4532 1
    2013     4150     4151 1
    2014     4297     4298 1
    2015     2566     2567 1
    2016     2754     2755 1
    2017      823      824 1
    2018      601      606 1
    2019     3618     3619 1
    2020     7901     7903 1
    2021    11735    11737 1
    2022     9899     9901 1
    2023    11816    11818 1
    2024     7982     7984 1
    2025     6146     6148 1
    2026      476      477 1
    2027     9737     9739 1
    2028    11978    11980 1
    2029     8444     8446 1
    2030     6011     6012 1
    2031     3666     3645 1
    2032     7802     7803 1
    2033     1886     1887 1
    2034     1970     1971 1
    2035     3023     3024 1
    2036    11432    11433 1
    2037    12269    12270 1
    2038     6518     6519 1
    2039     9191     9192 1
    2040    10352    10353 1
    2041     5357     5358 1
    2042     5195     5196 1
    2043     6356     6357 1
    2044    11270    11271 1
    2045    12293    12294 1
    2046    10214    10215 1
    2047     5462     5463 1
    2048    10376    10377 1
    2049     6866     6867 1
    2050     5786     5787 1
    2051    12212    12213 1
    2052    10781    10782 1
    2053     5300     5301 1
    2054     2729     2731 1
    2055     5090     5091 1
    2056     7073     7075 1
    2057     5138     5140 1
    2058     3776     3778 1
    2059     1078     1079 1
    2060      424      425 1
    2061     1284     1285 1
    2062     3884     3886 1
    2063     2011     1996 1
    2064      729      728 1
    2065     1755     1756 1
    2066     1758     1759 1
    2067     1977     1978 1
    2068     8942     8944 1
    2069     2012     2013 1
    2070      284      285 1
    2071      429      430 1
    2072     2968     2966 1
    2073     8711     8712 1
    2074     7529     7530 1
    2075     2719     2720 1
    2076     1116     1117 1
    2077     4498     4499 1
    2078     3478     3480 1
    2079      855      856 1
    2080     7421     7423 1
    2081     3208     3211 1
    2082     5183     5185 1
    2083     5021     5023 1
    2084    12014    12016 1
    2085    11852    11854 1
    2086     6263     6265 1
    2087    12095    12097 1
    2088     8018     8020 1
    2089     5102     5104 1
    2090    12176    12178 1
    2091    10016    10018 1
    2092     5282     5283 1
    2093    11459    11461 1
    2094     1625     1626 1
    2095     6833     6835 1
    2096     5930     5932 1
    2097     3100     3101 1
    2098     4115     4116 1
    2099     6308     6309 1
    2100     8063     8064 1
    2101     8144     8145 1
    2102     6065     6066 1
    2103    10142    10143 1
    2104     4985     4986 1
    2105     5066     5067 1
    2106     5984     5985 1
    2107     4271     4256 1
    2108     8306     8307 1
    2109     3169     3170 1
    2110    10259    10260 1
    2111     3374     3375 1
    2112     7295     7296 1
    2113      219      220 1
    2114     3085     3086 1
    2115     3188     3187 1
    2116     2864     2865 1
    2117     5996     5997 1
    2118    10154    10155 1
    2119     8075     8076 1
    2120     6077     6078 1
    2121     4997     4998 1
    2122     5078     5079 1
    2123     6320     6321 1
    2124    11909    11910 1
    2125      548      549 1
    2126     8318     8319 1
    2127     8849     8851 1
    2128     2992     2994 1
    2129    10766    10768 1
    2130    10604    10606 1
    2131     7256     7258 1
    2132     5771     5773 1
    2133     8687     8689 1
    2134     9173     9175 1
    2135      991      992 1
    2136     4157     4158 1
    2137     4473     4474 1
    2138     4461     4462 1
    2139     3285     3286 1
    2140     3554     3555 1
    2141     2247     2248 1
    2142     2172     2173 1
    2143     2716     2718 1
    2144     1973     1974 1
    2145     4802     4804 1
    2146     3601     3602 1
    2147    11345    11347 1
    2148     7469     7470 1
    2149     1688     1689 1
    2150      585      586 1
    2151     4546     4547 1
    2152      152      153 1
    2153     9983     9984 1
    2154    11819    11820 1
    2155     7904     7905 1
    2156    11738    11739 1
    2157    11981    11982 1
    2158     5906     5907 1
    2159     6149     6150 1
    2160     7985     7986 1
    2161     9902     9903 1
    2162     9740     9741 1
    2163     3476     3481 1
    2164    11363    11365 1
    2165     9527     9529 1
    2166    11714    11716 1
    2167     7880     7882 1
    2168     9797     9799 1
    2169    11876    11878 1
    2170      964      965 1
    2171     6044     6046 1
    2172     7610     7612 1
    2173     7799     7801 1
    2174     3037     3038 1
    2175     1376     1377 1
    2176     6797     6799 1
    2177     2592     2593 1
    2178     8921     8922 1
    2179     1652     1653 1
    2180     1658     1659 1
    2181     1341     1340 1
    2182     2642     2643 1
    2183     6656     6658 1
    2184     2964     2943 1
    2185     2788     2789 1
    2186     1041     1043 1
    2187    10790    10792 1
    2188    12221    12223 1
    2189     5309     5311 1
    2190     1990     1976 1
    2191     5795     5797 1
    2192     9422     9423 1
    2193    11717    11718 1
    2194     5471     5473 1
    2195    10466    10468 1
    2196     5147     5149 1
    2197     4784     4786 1
    2198     8867     8869 1
    2199    10595    10597 1
    2200     9770     9771 1
    2201     1207     1206 1
    2202     8963     8965 1
    2203     1648     1649 1
    2204     6626     6628 1
    2205     9647     9648 1
    2206     9485     9486 1
    2207    11402    11403 1
    2208    12320    12321 1
    2209     8486     8487 1
    2210     1138     1139 1
    2211     4389     4390 1
    2212     4173     4174 1
    2213    10565    10566 1
    2214    10403    10404 1
    2215     3566     3565 1
    2216    10961    10962 1
    2217    11123    11124 1
    2218     1526     1527 1
    2219     8882     8883 1
    2220     2473     2474 1
    2221     5885     5886 1
    2222     4326     4312 1
    2223     4295     4296 1
    2224     1742     1743 1
    2225     9044     9045 1
    2226     2020     2021 1
    2227     4301     4302 1
    2228     4721     4722 1
    2229     3668     3669 1
    2230    10112    10114 1
    2231     4694     4696 1
    2232     3604     3605 1
    2233     7022     7024 1
    2234     1550     1551 1
    2235     6329     6330 1
    2236     3369     3374 1
    2237     1341     1342 1
    2238      236      237 1
    2239     2933     2934 1
    2240     3701     3702 1
    2241     1177     1178 1
    2242      965      966 1
    2243     3039     3042 1
    2244    10367    10369 1
    2245     3735     3736 1
    2246     4973     4975 1
    2247    10049    10051 1
    2248     4588     4589 1
    2249     1072     1071 1
    2250     1587     1588 1
    2251      724      725 1
    2252       41       42 1
    2253      515      516 1
    2254     4053     4054 1
    2255     3620     3621 1
    2256    12299    12301 1
    2257     3861     3862 1
    2258     1878     1879 1
    2259     3003     3004 1
    2260     2150     2151 1
    2261     3288     3289 1
    2262     8225     8226 1
    2263     9509     9510 1
    2264    10304    10305 1
    2265    12059    12060 1
    2266    11426    11427 1
    2267     4593     4594 1
    2268     9671     9672 1
    2269     7430     7431 1
    2270     4576     4577 1
    2271     6470     6471 1
    2272     5216     5218 1
    2273     2614     2615 1
    2274     3892     3893 1
    2275     3459     3460 1
    2276     5396     5397 1
    2277    10472    10473 1
    2278     5153     5154 1
    2279    10391    10392 1
    2280     6638     6639 1
    2281    12227    12228 1
    2282    10229    10230 1
    2283     5477     5478 1
    2284     8393     8394 1
    2285     5315     5316 1
    2286     2054     2055 1
    2287     3768     3769 1
    2288     2398     2399 1
    2289     4617     4618 1
    2290     4170     4171 1
    2291     6710     6711 1
    2292     8807     8808 1
    2293     3787     3786 1
    2294      483      484 1
    2295      498      493 1
    2296     1783     1768 1
    2297     5033     5034 1
    2298     3998     3999 1
    2299     1276     1255 1
    2300     2490     2491 1
    2301     4931     4932 1
    2302     3549     3550 1
    2303     2895     2896 1
    2304     3758     3759 1
    2305     1731     1732 1
    2306     8672     8673 1
    2307     7985     7987 1
    2308     1165     1166 1
    2309      497      494 1
    2310     1713     1714 1
    2311      417      418 1
    2312     1104     1105 1
    2313     3963     3964 1
    2314     2252     2253 1
    2315     2018     2019 1
    2316      591      592 1
    2317     3573     3574 1
    2318       74       75 1
    2319     4910     4911 1
    2320     3352     3353 1
    2321     3785     3786 1
    2322     8582     8584 1
    2323     5342     5344 1
    2324    10499    10501 1
    2325     2600     2601 1
    2326     5882     5884 1
    2327     4697     4699 1
    2328    10877    10879 1
    2329    10715    10717 1
    2330     4533     4534 1
    2331     4299     4300 1
    2332     3103     3098 1
    2333     8165     8167 1
    2334      643      644 1
    2335      559      560 1
    2336     1698     1699 1
    2337     6968     6970 1
    2338     5456     5458 1
    2339     6806     6808 1
    2340    10289    10291 1
    2341     4306     4307 1
    2342     8561     8563 1
    2343     5645     5647 1
    2344     6455     6457 1
    2345     8372     8374 1
    2346    12206    12208 1
    2347     1230     1231 1
    2348     1021     1022 1
    2349     2942     2943 1
    2350     9425     9426 1
    2351     7955     7957 1
    2352    11411    11413 1
    2353     8117     8119 1
    2354     8036     8038 1
    2355     7496     7498 1
    2356     7820     7822 1
    2357     4856     4858 1
    2358     6200     6202 1
    2359     9872     9874 1
    2360     9656     9658 1
    2361     6173     6174 1
    2362     9251     9252 1
    2363     8606     8608 1
    2364     7760     7762 1
    2365     2356     2355 1
    2366    11933    11935 1
    2367     7031     7032 1
    2368     5654     5655 1
    2369     9110     9111 1
    2370     7193     7194 1
    2371      339      340 1
    2372     5492     5493 1
    2373     8732     8733 1
    2374    10649    10650 1
    2375     9272     9273 1
    2376    11027    11028 1
    2377     2678     2679 1
    2378     4928     4930 1
    2379     4233     4234 1
    2380     1723     1724 1
    2381      593      594 1
    2382      860      861 1
    2383      206      207 1
    2384     1069     1070 1
    2385      222      227 1
    2386     4745     4746 1
    2387     2705     2706 1
    2388     1465     1466 1
    2389     5447     5449 1
    2390     7973     7974 1
    2391    10253    10255 1
    2392     6623     6624 1
    2393     5270     5272 1
    2394    10346    10348 1
    2395      120      121 1
    2396      716      717 1
    2397     3052     3053 1
    2398     6485     6486 1
    2399     2644     2645 1
    2400      377      378 1
    2401     1056     1057 1
    2402     3494     3493 1
    2403    11285    11287 1
    2404     6083     6085 1
    2405      533      534 1
    2406     5051     5053 1
    2407     9860     9861 1
    2408      936      937 1
    2409     2572     2573 1
    2410     4507     4508 1
    2411     9734     9736 1
    2412     9842     9844 1
    2413     2452     2453 1
    2414     9512     9514 1
    2415    11348    11350 1
    2416     7595     7597 1
    2417     7514     7516 1
    2418     9593     9595 1
    2419    11591    11593 1
    2420     9350     9352 1
    2421     2618     2619 1
    2422     1654     1655 1
    2423      224      226 1
    2424     4718     4720 1
    2425     4766     4768 1
    2426    10079    10080 1
    2427     7061     7062 1
    2428     5198     5199 1
    2429     6899     6900 1
    2430     6926     6927 1
    2431    12272    12273 1
    2432     5738     5739 1
    2433     8816     8817 1
    2434     6521     6522 1
    2435     5360     5361 1
    2436     8978     8979 1
    2437     2646     2647 1
    2438     8210     8211 1
    2439    12125    12126 1
    2440     5294     5295 1
    2441     6293     6294 1
    2442    10127    10128 1
    2443     8291     8292 1
    2444    10208    10209 1
    2445    10046    10047 1
    2446     6671     6672 1
    2447    12044    12045 1
    2448     8201     8203 1
    2449    11954    11956 1
    2450    10037    10039 1
    2451     6284     6286 1
    2452    12116    12118 1
    2453     5285     5287 1
    2454     2971     2972 1
    2455     8282     8284 1
    2456     3755     3757 1
    2457    12035    12037 1
    2458     3625     3626 1
    2459     6575     6577 1
    2460     3771     3772 1
    2461     4317     4318 1
    2462    11543    11544 1
    2463     4401     4402 1
    2464     2918     2917 1
    2465     3973     3971 1
    2466     9287     9288 1
    2467     4220     4221 1
    2468     2588     2589 1
    2469     3770     3771 1
    2470     3259     3260 1
    2471     2206     2205 1
    2472      638      639 1
    2473     4480     4481 1
    2474     1235     1236 1
    2475     1020     1021 1
    2476      802      803 1
    2477     2667     2668 1
    2478     3647     3648 1
    2479     1440     1441 1
    2480    11090    11091 1
    2481     9227     9228 1
    2482     9065     9066 1
    2483    11252    11253 1
    2484     4934     4935 1
    2485      278      279 1
    2486     9335     9336 1
    2487    10982    10983 1
    2488     2594     2595 1
    2489     3905     3906 1
    2490     3086     3087 1
    2491     3940     3941 1
    2492     2865     2866 1
    2493     3887     3886 1
    2494    11486    11488 1
    2495     3580     3582 1
    2496    10283    10284 1
    2497     4709     4710 1
    2498     5702     5703 1
    2499     1358     1359 1
    2500     3841     3842 1
    2501     1464     1469 1
    2502     5186     5188 1
    2503     3934     3935 1
    2504     2626     2627 1
    2505     3968     3969 1
    2506     1624     1625 1
    2507     2960     2961 1
    2508     4922     4923 1
    2509     6416     6417 1
    2510     6113     6115 1
    2511     2772     2769 1
    2512     2273     2274 1
    2513    11525    11526 1
    2514     2817     2818 1
    2515    12311    12313 1
    2516    11498    11500 1
    2517     1365     1366 1
    2518     3637     3636 1
    2519    10004    10005 1
    2520     5831     5833 1
    2521    11780    11782 1
    2522     5318     5319 1
    2523     6641     6642 1
    2524    10394    10395 1
    2525     8720     8721 1
    2526     5480     5481 1
    2527     6884     6885 1
    2528     5156     5157 1
    2529    10232    10233 1
    2530    10799    10800 1
    2531     4432     4431 1
    2532     8975     8977 1
    2533     9689     9690 1
    2534     4808     4809 1
    2535     4004     4005 1
    2536     2295     2296 1
    2537    11312    11313 1
    2538     2064     2065 1
    2539     2571     2572 1
    2540     1098     1099 1
    2541     4624     4625 1
    2542     4093     4094 1
    2543     7166     7168 1
    2544     9002     9004 1
    2545     7085     7087 1
    2546    11378    11380 1
    2547     9164     9166 1
    2548    11000    11002 1
    2549     4128     4129 1
    2550     7706     7708 1
    2551     7247     7249 1
    2552    11162    11164 1
    2553     4362     4363 1
    2554      741      742 1
    2555      526      527 1
    2556     1172     1173 1
    2557    10220    10222 1
    2558     5219     5221 1
    2559     8459     8461 1
    2560     6218     6220 1
    2561     6380     6382 1
    2562    12050    12052 1
    2563    12131    12133 1
    2564     8216     8218 1
    2565      130      131 1
    2566    10052    10054 1
    2567     6461     6463 1
    2568     3185     3186 1
    2569     2911     2912 1
    2570    11816    11817 1
    2571     7982     7983 1
    2572     7901     7902 1
    2573     9737     9738 1
    2574     5903     5904 1
    2575     2521     2522 1
    2576     6146     6147 1
    2577    11735    11736 1
    2578     2621     2622 1
    2579     9899     9900 1
    2580    10562    10564 1
    2581     2120     2119 1
    2582     2627     2628 1
    2583     9749     9750 1
    2584     7913     7914 1
    2585     6158     6159 1
    2586    11828    11829 1
    2587    11990    11991 1
    2588     9911     9912 1
    2589     7994     7995 1
    2590     9992     9993 1
    2591    11747    11748 1
    2592    11585    11586 1
    2593     2465     2464 1
    2594     2719     2718 1
    2595     3671     3672 1
    2596     3747     3752 1
    2597    11903    11905 1
    2598     6515     6517 1
    2599     8195     8196 1
    2600     1555     1556 1
    2601    10979    10981 1
    2602      870      875 1
    2603     3780     3781 1
    2604     3546     3547 1
    2605     1920     1921 1
    2606     2239     2240 1
    2607     4076     4077 1
    2608      729      730 1
    2609     1299     1300 1
    2610     4613     4598 1
    2611     8249     8251 1
    2612     8411     8413 1
    2613     6170     6172 1
    2614    10166    10168 1
    2615     6332     6334 1
    2616     8168     8170 1
    2617    10247    10249 1
    2618     5252     5254 1
    2619     1444     1445 1
    2620     6413     6415 1
    2621      582      583 1
    2622      397      398 1
    2623     2096     2097 1
    2624     1088     1089 1
    2625      305      306 1
    2626     3261     3266 1
    2627     8825     8827 1
    2628     7151     7153 1
    2629     6989     6991 1
    2630     6665     6667 1
    2631     8987     8989 1
    2632     5747     5749 1
    2633     6908     6910 1
    2634     6827     6829 1
    2635     8906     8908 1
    2636    10823    10825 1
    2637     4524     4525 1
    2638     5561     5562 1
    2639     4377     4378 1
    2640     1013     1014 1
    2641     3645     3646 1
    2642     4222     4223 1
    2643     1028     1030 1
    2644     7646     7647 1
    2645     8285     8286 1
    2646     1960     1961 1
    2647     5105     5107 1
    2648     4108     4109 1
    2649      198      200 1
    2650     2049     2034 1
    2651     5717     5718 1
    2652    10523    10524 1
    2653     7463     7464 1
    2654     1428     1427 1
    2655     3099     3104 1
    2656     5570     5571 1
    2657    10727    10728 1
    2658     9809     9810 1
    2659     6731     6732 1
    2660     3909     3910 1
    2661     7730     7731 1
    2662     7568     7569 1
    2663     1349     1350 1
    2664      904      905 1
    2665      686      687 1
    2666     2937     2942 1
    2667     2019     2020 1
    2668      191      190 1
    2669      938      937 1
    2670     2554     2556 1
    2671     6824     6825 1
    2672     5180     5181 1
    2673     3010     3011 1
    2674     8378     8379 1
    2675     6431     6433 1
    2676     8105     8107 1
    2677     9920     9921 1
    2678     2495     2496 1
    2679     8708     8710 1
    2680     1274     1275 1
    2681    10691    10693 1
    2682     5534     5536 1
    2683     7397     7399 1
    2684     8774     8776 1
    2685     1278     1280 1
    2686     7013     7015 1
    2687     1396     1397 1
    2688     3941     3942 1
    2689      321      322 1
    2690    11231    11233 1
    2691     4435     4436 1
    2692     2975     2976 1
    2693     9977     9979 1
    2694    10085    10087 1
    2695     4112     4113 1
    2696     2533     2534 1
    2697     4106     4107 1
    2698     5129     5130 1
    2699     5309     5310 1
    2700     9077     9078 1
    2701     5795     5796 1
    2702     7592     7593 1
    2703    10790    10791 1
    2704    10466    10467 1
    2705    12221    12222 1
    2706     9833     9834 1
    2707     9239     9240 1
    2708     5147     5148 1
    2709     6407     6408 1
    2710     6116     6117 1
    2711     5117     5118 1
    2712     3182     3183 1
    2713    10178    10179 1
    2714     7952     7953 1
    2715     9950     9951 1
    2716     9869     9870 1
    2717     6197     6198 1
    2718     8114     8115 1
    2719     8033     8034 1
    2720     3040     3042 1
    2721     2979     2978 1
    2722     4826     4827 1
    2723     1865     1864 1
    2724     1949     1948 1
    2725    11441    11443 1
    2726    11198    11200 1
    2727     9443     9445 1
    2728    11279    11281 1
    2729     7364     7366 1
    2730     9200     9202 1
    2731     3622     3623 1
    2732      776      777 1
    2733    11639    11641 1
    2734     2210     2211 1
    2735     2282     2283 1
    2736     3336     3337 1
    2737     3984     3985 1
    2738     1311     1313 1
    2739    11318    11320 1
    2740     3640     3643 1
    2741     6974     6975 1
    2742     4633     4634 1
    2743     9266     9268 1
    2744    11870    11871 1
    2745     1787     1788 1
    2746     2102     2103 1
    2747     1355     1356 1
    2748     7229     7230 1
    2749    11387    11388 1
    2750     7391     7392 1
    2751     3134     3135 1
    2752     7715     7716 1
    2753     7310     7311 1
    2754    11144    11145 1
    2755     9551     9552 1
    2756    11468    11469 1
    2757     7118     7119 1
    2758     3355     3356 1
    2759     7043     7045 1
    2760     9122     9124 1
    2761    11039    11041 1
    2762     5666     5668 1
    2763     7205     7207 1
    2764    10661    10663 1
    2765     4861     4859 1
    2766     8744     8746 1
    2767     9284     9286 1
    2768     5504     5506 1
    2769     9839     9841 1
    2770     7004     7006 1
    2771    10619    10621 1
    2772      858      859 1
    2773     1234     1235 1
    2774      562      563 1
    2775     1701     1702 1
    2776    10100    10102 1
    2777     9938     9940 1
    2778     6941     6943 1
    2779     6104     6106 1
    2780    10937    10939 1
    2781    11483    11485 1
    2782     3293     3294 1
    2783     7859     7861 1
    2784    10115    10117 1
    2785     2722     2723 1
    2786     3283     3284 1
    2787     3068     3069 1
    2788     3931     3932 1
    2789     2420     2421 1
    2790     3020     3022 1
    2791     3277     3278 1
    2792      670      671 1
    2793     1103     1104 1
    2794    12032    12034 1
    2795    11951    11953 1
    2796    10034    10036 1
    2797    11654    11656 1
    2798     5282     5284 1
    2799     7577     7579 1
    2800     4192     4193 1
    2801     5039     5041 1
    2802     4889     4891 1
    2803     9818     9820 1
    2804     3100     3103 1
    2805     5156     5158 1
    2806     2129     2130 1
    2807     3046     3049 1
    2808     5921     5922 1
    2809     7919     7920 1
    2810     7757     7758 1
    2811     2687     2688 1
    2812    11672    11673 1
    2813    11510    11511 1
    2814     9755     9756 1
    2815     7676     7677 1
    2816     7460     7462 1
    2817     6992     6993 1
    2818     7154     7155 1
    2819     7262     7263 1
    2820     3975     3976 1
    2821     7100     7101 1
    2822     9179     9180 1
    2823     5831     5832 1
    2824     6668     6669 1
    2825     6830     6831 1
    2826    10826    10827 1
    2827     1034     1035 1
    2828     3018     3019 1
    2829      548      551 1
    2830     7700     7702 1
    2831      501      502 1
    2832     4630     4616 1
    2833     5153     5155 1
    2834    12026    12028 1
    2835     8192     8194 1
    2836     1384     1363 1
    2837     4688     4689 1
    2838     1668     1669 1
    2839     1014     1015 1
    2840    11789    11791 1
    2841     2382     2383 1
    2842     3133     3134 1
    2843     3354     3355 1
    2844      690      691 1
    2845     1553     1554 1
    2846     3145     3146 1
    2847     3787     3788 1
    2848     8435     8437 1
    2849     9515     9517 1
    2850     8597     8599 1
    2851     7598     7600 1
    2852     6680     6682 1
    2853     1532     1533 1
    2854     4506     4507 1
    2855    10514    10516 1
    2856     2809     2808 1
    2857    11594    11596 1
    2858     4104     4105 1
    2859     2658     2659 1
    2860      320      321 1
    2861     1183     1184 1
    2862      529      530 1
    2863     5819     5820 1
    2864     4943     4944 1
    2865     4276     4277 1
    2866     4129     4130 1
    2867      518      519 1
    2868     3005     3006 1
    2869     4360     4361 1
    2870       38       39 1
    2871      727      728 1
    2872     2532     2511 1
    2873    10856    10857 1
    2874     6212     6213 1
    2875     1626     1631 1
    2876      557      558 1
    2877     1002     1003 1
    2878     9431     9433 1
    2879      547      548 1
    2880    11429    11431 1
    2881     7352     7354 1
    2882    11267    11269 1
    2883    11186    11188 1
    2884     9188     9190 1
    2885     4799     4801 1
    2886     3403     3404 1
    2887     4682     4684 1
    2888     3415     3416 1
    2889     8030     8031 1
    2890     8117     8118 1
    2891     7496     7497 1
    2892    11534    11535 1
    2893    11696    11697 1
    2894     9872     9873 1
    2895     4490     4491 1
    2896     7781     7782 1
    2897     7820     7821 1
    2898     1578     1579 1
    2899     7943     7944 1
    2900     3172     3173 1
    2901     2518     2519 1
    2902     8405     8406 1
    2903     9617     9618 1
    2904     5915     5916 1
    2905     7331     7332 1
    2906     5612     5613 1
    2907     5801     5802 1
    2908    10445    10446 1
    2909    10796    10797 1
    2910     8528     8529 1
    2911     2288     2289 1
    2912     6611     6612 1
    2913     6773     6774 1
    2914     8717     8718 1
    2915     1738     1739 1
    2916     2463     2464 1
    2917     2375     2376 1
    2918     6458     6459 1
    2919     3863     3865 1
    2920    11036    11038 1
    2921    10157    10159 1
    2922    11477    11479 1
    2923     3789     3790 1
    2924     3122     3123 1
    2925     2133     2134 1
    2926      426      427 1
    2927     1289     1290 1
    2928     5171     5173 1
    2929    12083    12085 1
    2930     6737     6739 1
    2931     5576     5578 1
    2932     9086     9088 1
    2933     9815     9817 1
    2934    11165    11167 1
    2935     1232     1231 1
    2936    11003    11005 1
    2937    10733    10735 1
    2938     4961     4962 1
    2939     2004     2005 1
    2940      393      394 1
    2941     2916     2917 1
    2942     3361     3362 1
    2943     2819     2820 1
    2944     8639     8640 1
    2945     7529     7531 1
    2946     4679     4681 1
    2947     1634     1635 1
    2948    11423    11425 1
    2949     7832     7834 1
    2950     7508     7510 1
    2951     5132     5134 1
    2952     9884     9886 1
    2953     4294     4295 1
    2954     8129     8131 1
    2955     9506     9508 1
    2956     7967     7969 1
    2957     3072     3073 1
    2958     4453     4454 1
    2959       92       93 1
    2960      104      105 1
    2961    10622    10624 1
    2962     7907     7909 1
    2963       18       17 1
    2964     1660     1661 1
    2965     1931     1932 1
    2966     3936     3915 1
    2967     4497     4483 1
    2968     3531     3532 1
    2969     4101     4102 1
    2970     2144     2145 1
    2971      574      575 1
    2972     2478     2457 1
    2973    11621    11622 1
    2974     1745     1730 1
    2975     6086     6087 1
    2976     7841     7842 1
    2977    10082    10083 1
    2978     5249     5250 1
    2979     8165     8166 1
    2980    11081    11082 1
    2981     3883     3884 1
    2982    10244    10245 1
    2983     2560     2561 1
    2984     9326     9327 1
    2985     4089     4090 1
    2986     4476     4477 1
    2987     1859     1844 1
    2988     1122     1123 1
    2989     2772     2773 1
    2990      209      210 1
    2991     3742     3744 1
    2992     3694     3696 1
    2993     1061     1062 1
    2994     1502     1503 1
    2995     1890     1891 1
    2996     2190     2191 1
    2997     3141     3142 1
    2998     2856     2857 1
    2999      817      818 1
    3000     6695     6697 1
    3001     7148     7150 1
    3002      514      515 1
    3003     3813     3814 1
    3004     1068     1069 1
    3005     8702     8703 1
    3006      696      697 1
    3007     1556     1557 1
    3008     3396     3397 1
    3009    10919    10920 1
    3010     2404     2405 1
    3011     3033     3034 1
    3012     2653     2654 1
    3013      746      747 1
    3014     8318     8320 1
    3015     4290     4291 1
    3016     3206     3211 1
    3017      911      910 1
    3018     1210     1211 1
    3019     3741     3744 1
    3020    10322    10324 1
    3021      309      310 1
    3022     7214     7216 1
    3023     6620     6622 1
    3024    12113    12114 1
    3025    12263    12264 1
    3026     6593     6594 1
    3027     8921     8923 1
    3028     4640     4639 1
    3029    10376    10378 1
    3030     5462     5464 1
    3031     6866     6868 1
    3032     5786     5788 1
    3033     2794     2795 1
    3034    12212    12214 1
    3035     3218     3219 1
    3036     2797     2798 1
    3037     5381     5383 1
    3038    10781    10783 1
    3039     2074     2075 1
    3040     7121     7123 1
    3041     6209     6210 1
    3042     5870     5871 1
    3043    12248    12250 1
    3044      582      581 1
    3045     2096     2095 1
    3046    11333    11335 1
    3047     9416     9418 1
    3048    10901    10903 1
    3049    11063    11065 1
    3050     9146     9148 1
    3051     5126     5127 1
    3052     9500     9501 1
    3053     8123     8124 1
    3054     7826     7827 1
    3055     7502     7503 1
    3056     6206     6207 1
    3057    11417    11418 1
    3058     8042     8043 1
    3059     6125     6126 1
    3060     9878     9879 1
    3061     9770     9772 1
    3062     1459     1462 1
    3063     9725     9726 1
    3064      480      481 1
    3065     2416     2417 1
    3066    11897    11899 1
    3067     1572     1571 1
    3068     2468     2469 1
    3069     3088     3087 1
    3070      601      602 1
    3071      682      661 1
    3072    10268    10269 1
    3073     1322     1323 1
    3074      176      177 1
    3075    11627    11628 1
    3076     7850     7851 1
    3077     9686     9687 1
    3078    10091    10092 1
    3079    11765    11766 1
    3080     6014     6015 1
    3081     9848     9849 1
    3082    11927    11928 1
    3083     6095     6096 1
    3084     9929     9930 1
    3085     8093     8094 1
    3086     8333     8334 1
    3087     2821     2822 1
    3088     2809     2810 1
    3089     2806     2807 1
    3090     1388     1389 1
    3091     6503     6505 1
    3092     7844     7845 1
    3093    11570    11571 1
    3094     5078     5080 1
    3095     8156     8158 1
    3096    10154    10156 1
    3097     4997     4999 1
    3098     8075     8077 1
    3099     6077     6079 1
    3100     2737     2738 1
    3101     3391     3392 1
    3102     6320     6322 1
    3103     2424     2425 1
    3104      675      676 1
    3105     3713     3714 1
    3106      818      821 1
    3107      800      801 1
    3108     3925     3926 1
    3109      449      450 1
    3110     2990     2995 1
    3111      240      241 1
    3112    11891    11893 1
    3113     3344     3346 1
    3114     3057     3058 1
    3115    11603    11604 1
    3116     2452     2455 1
    3117    10232    10234 1
    3118     2502     2503 1
    3119      717      718 1
    3120     3474     3475 1
    3121     3964     3967 1
    3122     6245     6246 1
    3123     9161     9162 1
    3124     5084     5085 1
    3125    11996    11997 1
    3126     2276     2277 1
    3127     2378     2379 1
    3128     7244     7245 1
    3129     8000     8001 1
    3130     7082     7083 1
    3131     4398     4399 1
    3132     4620     4621 1
    3133     2480     2482 1
    3134     8288     8289 1
    3135     8207     8208 1
    3136     5291     5292 1
    3137     4304     4305 1
    3138     4310     4311 1
    3139    12122    12123 1
    3140     3718     3719 1
    3141     6290     6291 1
    3142     7613     7614 1
    3143     9530     9531 1
    3144     2239     2224 1
    3145     6710     6712 1
    3146     5033     5035 1
    3147     1983     1984 1
    3148     1830     1831 1
    3149     3646     3647 1
    3150       22       23 1
    3151     4260     4261 1
    3152     4560     4561 1
    3153     4644     4645 1
    3154     1401     1402 1
    3155     1667     1668 1
    3156     6980     6981 1
    3157      325      328 1
    3158     2536     2537 1
    3159      778      779 1
    3160     9485     9487 1
    3161    11402    11404 1
    3162    12320    12322 1
    3163    10403    10405 1
    3164     8486     8488 1
    3165     9647     9649 1
    3166    10565    10567 1
    3167     8324     8326 1
    3168     8648     8650 1
    3169     7406     7408 1
    3170     1689     1691 1
    3171     6674     6675 1
    3172     7160     7161 1
    3173     6836     6837 1
    3174     7268     7269 1
    3175     9185     9186 1
    3176     7106     7107 1
    3177     6998     6999 1
    3178    10832    10833 1
    3179     9023     9024 1
    3180      414      415 1
    3181     4183     4184 1
    3182     8396     8397 1
    3183       15       16 1
    3184    10775    10776 1
    3185     7697     7698 1
    3186     5942     5943 1
    3187    11693    11694 1
    3188     8858     8859 1
    3189    11531    11532 1
    3190      872      875 1
    3191     8696     8697 1
    3192     4730     4731 1
    3193     5780     5781 1
    3194     6512     6514 1
    3195     2370     2371 1
    3196     8645     8646 1
    3197      466      467 1
    3198    11270    11272 1
    3199     4007     4008 1
    3200     2920     2921 1
    3201     3359     3360 1
    3202     1330     1309 1
    3203    10349    10350 1
    3204     1834     1835 1
    3205     2215     2216 1
    3206     1981     1982 1
    3207     6683     6685 1
    3208    10517    10519 1
    3209    11057    11059 1
    3210     9140     9142 1
    3211    10895    10897 1
    3212     3867     3868 1
    3213     8600     8602 1
    3214     8438     8440 1
    3215     7235     7237 1
    3216     4937     4938 1
    3217     2343     2344 1
    3218     1793     1794 1
    3219     1940     1941 1
    3220     4171     4172 1
    3221     2385     2386 1
    3222      155      156 1
    3223     2249     2250 1
    3224     9509     9511 1
    3225      248      249 1
    3226     6557     6559 1
    3227    10553    10555 1
    3228     8798     8800 1
    3229    11426    11428 1
    3230     9551     9553 1
    3231     8636     8638 1
    3232     6719     6721 1
    3233     5558     5560 1
    3234     6368     6369 1
    3235      986      987 1
    3236     4219     4220 1
    3237     4450     4451 1
    3238     4892     4893 1
    3239     2269     2270 1
    3240     2586     2565 1
    3241     2996     2997 1
    3242     3842     3843 1
    3243     4051     4052 1
    3244     9263     9264 1
    3245    11384    11386 1
    3246    11006    11008 1
    3247     7712     7714 1
    3248     1127     1128 1
    3249     9170     9172 1
    3250     3115     3114 1
    3251     9089     9091 1
    3252     7172     7174 1
    3253     7253     7255 1
    3254     9548     9550 1
    3255      306      308 1
    3256        8       11 1
    3257     3035     3036 1
    3258      559      558 1
    3259     1248     1253 1
    3260     2590     2591 1
    3261     5627     5628 1
    3262     6788     6789 1
    3263     6950     6951 1
    3264     6248     6249 1
    3265     8543     8544 1
    3266     8003     8004 1
    3267     5087     5088 1
    3268    10622    10623 1
    3269    11837    11838 1
    3270    12161    12162 1
    3271    10241    10242 1
    3272     6164     6165 1
    3273     8243     8244 1
    3274     3332     3333 1
    3275     6569     6570 1
    3276    11915    11916 1
    3277     1755     1754 1
    3278    11753    11754 1
    3279     6002     6003 1
    3280     7838     7839 1
    3281       36       38 1
    3282      384      383 1
    3283      851      852 1
    3284     4442     4443 1
    3285      761      762 1
    3286     2118     2119 1
    3287      837      838 1
    3288     2008     2009 1
    3289     9287     9289 1
    3290      871      872 1
    3291     4128     4127 1
    3292      174      175 1
    3293     1077     1078 1
    3294      247      248 1
    3295     3437     3438 1
    3296     3347     3346 1
    3297      331      332 1
    3298     1263     1264 1
    3299      260      261 1
    3300     2494     2495 1
    3301     3452     3453 1
    3302     2804     2805 1
    3303     1744     1745 1
    3304      310      311 1
    3305      207      208 1
    3306      428      429 1
    3307     1727     1728 1
    3308      596      598 1
    3309     1483     1484 1
    3310     1265     1266 1
    3311     1027     1030 1
    3312     3032     3033 1
    3313     1593     1594 1
    3314    10265    10266 1
    3315     3441     3442 1
    3316     3375     3376 1
    3317     2334     2335 1
    3318     2083     2084 1
    3319      272      274 1
    3320     6350     6351 1
    3321     5270     5271 1
    3322    10196    10197 1
    3323     9818     9819 1
    3324    10184    10185 1
    3325     6431     6432 1
    3326     8267     8268 1
    3327    10034    10035 1
    3328    11654    11655 1
    3329    11951    11952 1
    3330     4516     4502 1
    3331     1520     1522 1
    3332     2087     2088 1
    3333     1859     1860 1
    3334     5246     5247 1
    3335     8762     8763 1
    3336     5522     5523 1
    3337    10679    10680 1
    3338     3676     3675 1
    3339    11084    11085 1
    3340     9329     9330 1
    3341    11246    11247 1
    3342    10535    10536 1
    3343     7535     7536 1
    3344     7886     7887 1
    3345    11720    11721 1
    3346     7616     7617 1
    3347     6050     6051 1
    3348     9371     9372 1
    3349     9533     9534 1
    3350     9803     9804 1
    3351    11801    11802 1
    3352    11369    11370 1
    3353     1196     1197 1
    3354     6959     6961 1
    3355     6392     6394 1
    3356    10550    10552 1
    3357     8228     8230 1
    3358     5636     5638 1
    3359     8366     8367 1
    3360     7367     7368 1
    3361     8471     8473 1
    3362     4385     4386 1
    3363     5555     5557 1
    3364     2980     2981 1
    3365     9446     9447 1
    3366     5450     5451 1
    3367     4613     4614 1
    3368     6449     6450 1
    3369     2141     2142 1
    3370     1003     1004 1
    3371    11525    11527 1
    3372     4086     4087 1
    3373     4548     4549 1
    3374     9707     9708 1
    3375     7439     7440 1
    3376     8612     8613 1
    3377     2900     2901 1
    3378    10004    10006 1
    3379     2504     2509 1
    3380     9689     9691 1
    3381     7805     7806 1
    3382     3380     3381 1
    3383     3386     3387 1
    3384    11588    11590 1
    3385      802      801 1
    3386     9386     9387 1
    3387     2327     2328 1
    3388      615      616 1
    3389      836      837 1
    3390     7499     7500 1
    3391     7823     7824 1
    3392      182      183 1
    3393      403      404 1
    3394     8579     8580 1
    3395    10496    10497 1
    3396     5339     5340 1
    3397     7961     7962 1
    3398     5783     5784 1
    3399     6500     6501 1
    3400     5261     5263 1
    3401     8177     8179 1
    3402    11093    11095 1
    3403    10256    10258 1
    3404     9338     9340 1
    3405    11255    11257 1
    3406     3949     3950 1
    3407     4275     4276 1
    3408     2441     2442 1
    3409     6584     6586 1
    3410       41       40 1
    3411    10046    10048 1
    3412    12125    12127 1
    3413     5294     5296 1
    3414     8210     8212 1
    3415     6293     6295 1
    3416    10208    10210 1
    3417    10127    10129 1
    3418     8291     8293 1
    3419     4027     4028 1
    3420    12044    12046 1
    3421     2955     2954 1
    3422     7349     7350 1
    3423     5972     5973 1
    3424     3729     3730 1
    3425     4394     4395 1
    3426     4472     4473 1
    3427     4325     4326 1
    3428     4163     4164 1
    3429     4247     4248 1
    3430      234      235 1
    3431     2739     2740 1
    3432     1519     1524 1
    3433    11339    11340 1
    3434     5966     5967 1
    3435       62       65 1
    3436     6092     6093 1
    3437     2991     2992 1
    3438     1478     1479 1
    3439     8690     8691 1
    3440     3895     3896 1
    3441     3253     3254 1
    3442     3986     3987 1
    3443     2381     2382 1
    3444     4242     4243 1
    3445     3377     3379 1
    3446      769      770 1
    3447     3128     3130 1
    3448    11690    11691 1
    3449     7937     7938 1
    3450     5939     5940 1
    3451     4916     4918 1
    3452     3752     3753 1
    3453     2631     2632 1
    3454     7694     7695 1
    3455     3104     3105 1
    3456    11528    11529 1
    3457     9773     9774 1
    3458     4670     4671 1
    3459     3910     3912 1
    3460     8195     8197 1
    3461     3347     3348 1
    3462     4138     4123 1
    3463     2055     2056 1
    3464     4037     4038 1
    3465     1908     1909 1
    3466     2950     2951 1
    3467     2962     2963 1
    3468      980      981 1
    3469     1671     1670 1
    3470     3007     3008 1
    3471      547      552 1
    3472     1017     1018 1
    3473     1407     1408 1
    3474     2804     2806 1
    3475     1192     1193 1
    3476     4393     4394 1
    3477     4246     4247 1
    3478      269      270 1
    3479     7427     7429 1
    3480      454      455 1
    3481     1591     1592 1
    3482      734      735 1
    3483     3529     3528 1
    3484     4413     4414 1
    3485     4182     4183 1
    3486      744      745 1
    3487     2750     2752 1
    3488      353      354 1
    3489     1692     1693 1
    3490      617      618 1
    3491     5561     5563 1
    3492      315      316 1
    3493     4357     4358 1
    3494     4504     4505 1
    3495     1506     1507 1
    3496     1810     1811 1
    3497     2106     2107 1
    3498     9668     9669 1
    3499     2800     2801 1
    3500     2773     2774 1
    3501     3436     3437 1
    3502     4484     4485 1
    3503     4415     4416 1
    3504     8285     8287 1
    3505     2353     2354 1
    3506     2761     2762 1
    3507    11129    11130 1
    3508    10724    10725 1
    3509     5891     5892 1
    3510    10967    10968 1
    3511     8888     8889 1
    3512     3599     3600 1
    3513    12290    12292 1
    3514     9050     9051 1
    3515    10886    10887 1
    3516     7133     7134 1
    3517     4016     4021 1
    3518     1762     1748 1
    3519     4820     4822 1
    3520     8348     8350 1
    3521     3334     3333 1
    3522     9824     9825 1
    3523    10040    10041 1
    3524    11660    11661 1
    3525     5288     5289 1
    3526     3482     3483 1
    3527     6287     6288 1
    3528     8204     8205 1
    3529     7664     7665 1
    3530    12038    12039 1
    3531    12119    12120 1
    3532     7463     7465 1
    3533     1735     1736 1
    3534      336      337 1
    3535     3647     3649 1
    3536     1125     1126 1
    3537     1146     1141 1
    3538    11960    11961 1
    3539     4068     4069 1
    3540     2098     2099 1
    3541     4457     4458 1
    3542     3182     3184 1
    3543    10589    10590 1
    3544    11894    11895 1
    3545      771      772 1
    3546     1955     1956 1
    3547     4402     4388 1
    3548     2103     2104 1
    3549      589      590 1
    3550     8462     8463 1
    3551     1276     1277 1
    3552     1463     1462 1
    3553    10940    10942 1
    3554     1229     1230 1
    3555    12314    12316 1
    3556     4865     4866 1
    3557     2202     2203 1
    3558     5180     5182 1
    3559    11228    11230 1
    3560     7394     7396 1
    3561     3460     3461 1
    3562     7232     7234 1
    3563     2595     2596 1
    3564     3458     3459 1
    3565    11147    11149 1
    3566     7313     7315 1
    3567     6371     6372 1
    3568     3249     3250 1
    3569     1394     1395 1
    3570     9920     9922 1
    3571     6158     6160 1
    3572     7994     7996 1
    3573    11828    11830 1
    3574     9749     9751 1
    3575    11990    11992 1
    3576     7913     7915 1
    3577     9911     9913 1
    3578    11585    11587 1
    3579    11906    11907 1
    3580     9992     9994 1
    3581     1621     1624 1
    3582     2351     2352 1
    3583     1466     1467 1
    3584     7484     7485 1
    3585     2889     2890 1
    3586     3196     3197 1
    3587     2386     2387 1
    3588     1142     1143 1
    3589     8684     8685 1
    3590      339      341 1
    3591     2948     2949 1
    3592     2733     2734 1
    3593      470      471 1
    3594     5609     5611 1
    3595     2394     2395 1
    3596     5717     5719 1
    3597     2877     2880 1
    3598    10892    10893 1
    3599    11054    11055 1
    3600     3235     3236 1
    3601     1424     1425 1
    3602     9137     9138 1
    3603     2285     2286 1
    3604     9056     9057 1
    3605     1569     1570 1
    3606     1033     1034 1
    3607     9218     9219 1
    3608     1088     1090 1
    3609     3279     3280 1
    3610     3115     3116 1
    3611     4793     4794 1
    3612     3236     3238 1
    3613     1959     1960 1
    3614     1839     1840 1
    3615     3855     3856 1
    3616     4486     4487 1
    3617     3168     3169 1
    3618     6107     6109 1
    3619     6044     6045 1
    3620     3153     3154 1
    3621     6410     6411 1
    3622     2710     2711 1
    3623     2600     2599 1
    3624     5126     5128 1
    3625      347      348 1
    3626      829      830 1
    3627     9827     9829 1
    3628     7586     7588 1
    3629     9071     9073 1
    3630     7748     7750 1
    3631     9233     9235 1
    3632    10988    10990 1
    3633    11777    11778 1
    3634       53       54 1
    3635     3220     3221 1
    3636    10973    10974 1
    3637     1574     1576 1
    3638     3518     3519 1
    3639     3748     3749 1
    3640     5570     5572 1
    3641    10727    10729 1
    3642     2231     2232 1
    3643     9809     9811 1
    3644     8876     8878 1
    3645     6731     6733 1
    3646      653      654 1
    3647     7730     7732 1
    3648     7568     7570 1
    3649      632      630 1
    3650    11291    11293 1
    3651     5012     5014 1
    3652     3763     3762 1
    3653     3801     3806 1
    3654     4787     4788 1
    3655     7277     7278 1
    3656     9113     9114 1
    3657    11030    11031 1
    3658     7034     7035 1
    3659    11771    11772 1
    3660    11381    11382 1
    3661     7196     7197 1
    3662     9626     9627 1
    3663     7709     7710 1
    3664     1951     1952 1
    3665     3289     3290 1
    3666     5591     5592 1
    3667     6752     6753 1
    3668     9830     9831 1
    3669     7589     7590 1
    3670    10748    10749 1
    3671     7751     7752 1
    3672     5393     5395 1
    3673     6635     6637 1
    3674    10388    10390 1
    3675    12305    12307 1
    3676     8390     8392 1
    3677    10469    10471 1
    3678     3413     3414 1
    3679     5312     5314 1
    3680      773      774 1
    3681    11369    11371 1
    3682     3834     3835 1
    3683     1637     1635 1
    3684     1000     1001 1
    3685     7136     7138 1
    3686     3530     3535 1
    3687      490      491 1
    3688     1032     1031 1
    3689     2217     2216 1
    3690     2999     3001 1
    3691      256      257 1
    3692     7208     7209 1
    3693     2248     2249 1
    3694     3497     3498 1
    3695     3484     3485 1
    3696     2471     2472 1
    3697     1242     1241 1
    3698     1991     1992 1
    3699     6812     6813 1
    3700     2131     2132 1
    3701     1750     1751 1
    3702     1319     1320 1
    3703     4177     4178 1
    3704     1540     1541 1
    3705       20       21 1
    3706     6608     6609 1
    3707     8525     8526 1
    3708     8444     8445 1
    3709    10793    10794 1
    3710     8606     8607 1
    3711     6878     6879 1
    3712     8714     8715 1
    3713     5798     5799 1
    3714     3143     3144 1
    3715     5609     5610 1
    3716     7592     7594 1
    3717     4877     4879 1
    3718     9239     9241 1
    3719     9077     9079 1
    3720     9833     9835 1
    3721     3899     3900 1
    3722    10994    10996 1
    3723      292      293 1
    3724     7754     7756 1
    3725     1428     1429 1
    3726      356      357 1
    3727     3508     3509 1
    3728     1676     1678 1
    3729     7658     7660 1
    3730     2844     2845 1
    3731      246      247 1
    3732     1533     1534 1
    3733      920      922 1
    3734     4970     4971 1
    3735      602      603 1
    3736     6056     6058 1
    3737     4176     4161 1
    3738     2895     2894 1
    3739     2451     2456 1
    3740      412      413 1
    3741     2902     2903 1
    3742     1647     1646 1
    3743     9296     9298 1
    3744     2419     2420 1
    3745     3551     3552 1
    3746     1739     1740 1
    3747     2903     2904 1
    3748     2897     2898 1
    3749     2775     2776 1
    3750     4868     4870 1
    3751     1709     1710 1
    3752     1703     1704 1
    3753     2088     2089 1
    3754      856      857 1
    3755     1628     1629 1
    3756     1406     1408 1
    3757    10223    10224 1
    3758     1705     1706 1
    3759     3994     3995 1
    3760     6200     6201 1
    3761     6437     6439 1
    3762    11189    11191 1
    3763     3208     3210 1
    3764     9434     9436 1
    3765    12350    12352 1
    3766     7355     7357 1
    3767     8354     8356 1
    3768     5438     5440 1
    3769    12188    12190 1
    3770    10271    10273 1
    3771     4257     4258 1
    3772     4110     4111 1
    3773      736      737 1
    3774    11996    11998 1
    3775      995      996 1
    3776      841      842 1
    3777     9302     9303 1
    3778     8639     8641 1
    3779     3160     3161 1
    3780     1611     1612 1
    3781     8294     8296 1
    3782     6647     6648 1
    3783    11033    11035 1
    3784     1644     1645 1
    3785     1647     1648 1
    3786      993      994 1
    3787     7919     7921 1
    3788     5921     5923 1
    3789     7757     7759 1
    3790    11510    11512 1
    3791     9755     9757 1
    3792    11672    11674 1
    3793     7676     7678 1
    3794     3181     3182 1
    3795     2546     2547 1
    3796     2752     2753 1
    3797     2368     2369 1
    3798      327      328 1
    3799     7112     7113 1
    3800     7091     7092 1
    3801     8927     8928 1
    3802     2397     2398 1
    3803     9089     9090 1
    3804    11384    11385 1
    3805    11006    11007 1
    3806     7712     7713 1
    3807     7253     7254 1
    3808     9170     9171 1
    3809    11465    11466 1
    3810     6794     6796 1
    3811     4186     4187 1
    3812     2557     2558 1
    3813     9053     9055 1
    3814     9374     9375 1
    3815     2256     2242 1
    3816     9209     9210 1
    3817     7724     7725 1
    3818     9452     9453 1
    3819    11396    11397 1
    3820     9641     9642 1
    3821    11288    11289 1
    3822    11450    11451 1
    3823    11477    11478 1
    3824     7373     7374 1
    3825    11558    11559 1
    3826    11621    11623 1
    3827     9785     9787 1
    3828     4309     4310 1
    3829      961      960 1
    3830      474      475 1
    3831     5048     5049 1
    3832      177      179 1
    3833     3119     3120 1
    3834     3331     3332 1
    3835       59       60 1
    3836     2148     2149 1
    3837     2283     2284 1
    3838     1833     1834 1
    3839     6353     6354 1
    3840    11024    11026 1
    3841    11264    11266 1
    3842     5402     5404 1
    3843    10235    10237 1
    3844     3722     3723 1
    3845     2824     2826 1
    3846      493      494 1
    3847     5876     5877 1
    3848     7415     7417 1
    3849     2613     2618 1
    3850     7943     7945 1
    3851     5945     5947 1
    3852     9779     9781 1
    3853    11696    11698 1
    3854     7781     7783 1
    3855    11534    11536 1
    3856     3728     3729 1
    3857     4131     4132 1
    3858     3304     3305 1
    3859     2506     2508 1
    3860    10343    10345 1
    3861    10919    10921 1
    3862     9713     9714 1
    3863     8384     8385 1
    3864     5144     5145 1
    3865      338      339 1
    3866     4153     4154 1
    3867     4609     4610 1
    3868     7583     7584 1
    3869     9422     9424 1
    3870     3882     3861 1
    3871     1203     1205 1
    3872     3964     3965 1
    3873       68       69 1
    3874     2842     2843 1
    3875     3275     3276 1
    3876     7010     7011 1
    3877     7922     7923 1
    3878     8759     8760 1
    3879     5519     5520 1
    3880    10703    10704 1
    3881     6194     6195 1
    3882     7949     7950 1
    3883     8111     8112 1
    3884    10865    10866 1
    3885     9866     9867 1
    3886     7760     7761 1
    3887     1781     1767 1
    3888     8432     8433 1
    3889     9134     9135 1
    3890     8594     8595 1
    3891    11051    11052 1
    3892     6677     6678 1
    3893     1094     1095 1
    3894    10889    10890 1
    3895    10511    10512 1
    3896     3151     3152 1
    3897     8231     8233 1
    3898     2405     2407 1
    3899     1281     1282 1
    3900      848      849 1
    3901       72       73 1
    3902      223      224 1
    3903     6662     6664 1
    3904     4439     4440 1
    3905     1466     1468 1
    3906     1256     1257 1
    3907     2208     2209 1
    3908     1470     1471 1
    3909      889      890 1
    3910     3434     3435 1
    3911     3001     3002 1
    3912     9608     9609 1
    3913     4403     4404 1
    3914      842      843 1
    3915     3575     3576 1
    3916      687      688 1
    3917      468      469 1
    3918     4727     4728 1
    3919      943      944 1
    3920     1367     1368 1
    3921     3093     3096 1
    3922    11579    11580 1
    3923     3285     3284 1
    3924     7964     7966 1
    3925     8126     8128 1
    3926     6128     6130 1
    3927     9881     9883 1
    3928     8081     8083 1
    3929     6209     6211 1
    3930     9962     9964 1
    3931     3887     3888 1
    3932     8045     8047 1
    3933     5129     5131 1
    3934    10115    10116 1
    3935     3656     3657 1
    3936      166      167 1
    3937    11570    11572 1
    3938     2188     2189 1
    3939     2225     2226 1
    3940     1924     1925 1
    3941     2105     2106 1
    3942     8045     8046 1
    3943     4335     4334 1
    3944     6701     6702 1
    3945     7457     7458 1
    3946     7214     7215 1
    3947    10454    10455 1
    3948     8537     8538 1
    3949     4901     4902 1
    3950     8456     8457 1
    3951     8618     8619 1
    3952    11048    11049 1
    3953     3817     3818 1
    3954     4180     4181 1
    3955     7601     7602 1
    3956     8261     8262 1
    3957     9356     9357 1
    3958     7520     7521 1
    3959    11354    11355 1
    3960     9518     9519 1
    3961     1362     1363 1
    3962     9599     9600 1
    3963    11597    11598 1
    3964     9692     9693 1
    3965     3727     3728 1
    3966    11414    11416 1
    3967     8660     8662 1
    3968     5420     5422 1
    3969    10415    10417 1
    3970    12332    12334 1
    3971     7718     7719 1
    3972    11390    11391 1
    3973     8498     8500 1
    3974     9497     9499 1
    3975     9635     9636 1
    3976    11471    11472 1
    3977     9554     9555 1
    3978      561      562 1
    3979     2974     2975 1
    3980     9716     9717 1
    3981     4055     4056 1
    3982     1147     1148 1
    3983     7451     7452 1
    3984     3910     3913 1
    3985     2610     2607 1
    3986     1246     1247 1
    3987     3960     3961 1
    3988     3389     3390 1
    3989     7064     7066 1
    3990     3446     3447 1
    3991     3747     3748 1
    3992     3664     3663 1
    3993     3776     3777 1
    3994    11789    11790 1
    3995     3693     3694 1
    3996     2330     2331 1
    3997     2246     2247 1
    3998     4315     4316 1
    3999     7556     7558 1
    4000     3798     3795 1
    4001     9311     9313 1
    4002     7637     7639 1
    4003     3673     3674 1
    4004     9392     9394 1
    4005     3464     3465 1
    4006     7475     7477 1
    4007     9473     9475 1
    4008     3005     3004 1
    4009     3938     3939 1
    4010     3788     3789 1
    4011     3597     3598 1
    4012     4042     4043 1
    4013     9428     9429 1
    4014     4421     4407 1
    4015     4244     4245 1
    4016     2935     2936 1
    4017     2383     2384 1
    4018     4097     4098 1
    4019     3056     3057 1
    4020     3922     3923 1
    4021      809      810 1
    4022     3271     3272 1
    4023     6980     6982 1
    4024     2660     2659 1
    4025     3421     3422 1
    4026     3239     3240 1
    4027      609      611 1
    4028     4308     4309 1
    4029     2742     2743 1
    4030     4536     4537 1
    4031     3863     3864 1
    4032     7523     7525 1
    4033    11357    11359 1
    4034    10439    10441 1
    4035     8522     8524 1
    4036     5606     5608 1
    4037     6605     6607 1
    4038     6767     6769 1
    4039     9602     9604 1
    4040     9260     9261 1
    4041    11603    11605 1
    4042     3457     3458 1
    4043     3230     3231 1
    4044     8396     8398 1
    4045     2964     2965 1
    4046    12188    12189 1
    4047     2830     2833 1
    4048      143      144 1
    4049     5453     5454 1
    4050    10556    10557 1
    4051     8801     8802 1
    4052     6965     6966 1
    4053     3930     3931 1
    4054     5642     5643 1
    4055     6533     6534 1
    4056       99      100 1
    4057     5210     5211 1
    4058     2398     2400 1
    4059     4964     4966 1
    4060     2104     2090 1
    4061      398      399 1
    4062     1706     1707 1
    4063     1196     1199 1
    4064     1149     1150 1
    4065     1872     1873 1
    4066      400      399 1
    4067    11978    11979 1
    4068     3506     3508 1
    4069     8954     8955 1
    4070     4631     4632 1
    4071     3348     3349 1
    4072     3139     3140 1
    4073     2721     2726 1
    4074    10325    10326 1
    4075     2922     2923 1
    4076     2701     2702 1
    4077     7274     7276 1
    4078     6734     6736 1
    4079     4651     4652 1
    4080     5573     5575 1
    4081     7436     7438 1
    4082    10730    10732 1
    4083     4185     4186 1
    4084     1695     1696 1
    4085     1262     1263 1
    4086     6818     6819 1
    4087     4351     4352 1
    4088     4582     4583 1
    4089     1163     1164 1
    4090     3011     3012 1
    4091     6368     6370 1
    4092     1029     1030 1
    4093     1217     1218 1
    4094      790      791 1
    4095     5084     5086 1
    4096     7244     7246 1
    4097     9161     9163 1
    4098     6245     6247 1
    4099     7082     7084 1
    4100     8000     8002 1
    4101    12158    12160 1
    4102    10718    10719 1
    4103     4566     4565 1
    4104     8999     9001 1
    4105     4751     4753 1
    4106     4847     4849 1
    4107     1710     1711 1
    4108      846      848 1
    4109     2937     2938 1
    4110     3471     3474 1
    4111     9935     9936 1
    4112    10427    10429 1
    4113      899      898 1
    4114     6314     6315 1
    4115     4991     4992 1
    4116    10148    10149 1
    4117     8150     8151 1
    4118     5072     5073 1
    4119     8069     8070 1
    4120     5990     5991 1
    4121     8312     8313 1
    4122     6071     6072 1
    4123    11903    11904 1
    4124     2170     2171 1
    4125     2101     2102 1
    4126     3250     3251 1
    4127    11573    11575 1
    4128     8357     8359 1
    4129     6440     6442 1
    4130     5846     5848 1
    4131    12191    12193 1
    4132     8897     8899 1
    4133    10841    10843 1
    4134     5684     5686 1
    4135     9464     9466 1
    4136     5441     5443 1
    4137     5819     5821 1
    4138     4691     4692 1
    4139     4913     4914 1
    4140     2376     2377 1
    4141     2925     2926 1
    4142    11867    11868 1
    4143     6467     6468 1
    4144     9023     9025 1
    4145     9185     9187 1
    4146     7268     7270 1
    4147     7106     7108 1
    4148     6674     6676 1
    4149     7160     7162 1
    4150      666      667 1
    4151     6998     7000 1
    4152     4305     4306 1
    4153      534      535 1
    4154     3888     3889 1
    4155     9701     9703 1
    4156      341      342 1
    4157     5942     5944 1
    4158     7697     7699 1
    4159    10775    10777 1
    4160     8858     8860 1
    4161     8696     8698 1
    4162    11531    11533 1
    4163     5780     5782 1
    4164    10613    10615 1
    4165     9776     9778 1
    4166    11693    11695 1
    4167      318      319 1
    4168     1439     1440 1
    4169     4922     4924 1
    4170     7091     7093 1
    4171     7226     7228 1
    4172     1551     1552 1
    4173     7388     7390 1
    4174    11141    11143 1
    4175    11222    11224 1
    4176     7307     7309 1
    4177     7478     7479 1
    4178    11303    11305 1
    4179     2819     2818 1
    4180     6335     6336 1
    4181    12248    12249 1
    4182     4100     4101 1
    4183      331      336 1
    4184     2111     2112 1
    4185     1889     1890 1
    4186     1145     1140 1
    4187     5384     5385 1
    4188    10379    10380 1
    4189    10217    10218 1
    4190     3856     3857 1
    4191     8948     8949 1
    4192     5708     5709 1
    4193    12296    12297 1
    4194     6869     6870 1
    4195     3420     3421 1
    4196      633      634 1
    4197      764      766 1
    4198    11897    11898 1
    4199     1818     1819 1
    4200     2112     2113 1
    4201     7439     7441 1
    4202     9707     9709 1
    4203     8612     8614 1
    4204     4650     4651 1
    4205     2732     2733 1
    4206     4495     4496 1
    4207     2391     2394 1
    4208      758      760 1
    4209     1057     1058 1
    4210      839      840 1
    4211     1129     1130 1
    4212     3572     3573 1
    4213      475      476 1
    4214     2491     2492 1
    4215     3074     3076 1
    4216     7961     7963 1
    4217     6359     6360 1
    4218    10259    10261 1
    4219     8180     8182 1
    4220     9854     9856 1
    4221     7856     7858 1
    4222     6344     6346 1
    4223    10178    10180 1
    4224     8423     8425 1
    4225     5621     5623 1
    4226     1309     1310 1
    4227    10097    10099 1
    4228     1745     1746 1
    4229     6188     6189 1
    4230      896      897 1
    4231      733      734 1
    4232    10241    10243 1
    4233     9836     9838 1
    4234     6326     6328 1
    4235     6002     6004 1
    4236     6164     6166 1
    4237     1846     1847 1
    4238     8243     8245 1
    4239     7838     7840 1
    4240     8162     8164 1
    4241     1301     1302 1
    4242     1130     1131 1
    4243      912      913 1
    4244      258      259 1
    4245     9293     9294 1
    4246     8252     8254 1
    4247    10331    10333 1
    4248     2655     2656 1
    4249     3451     3452 1
    4250     9317     9318 1
    4251     9479     9480 1
    4252     7562     7563 1
    4253     7643     7644 1
    4254     9398     9399 1
    4255     7481     7482 1
    4256    11360    11362 1
    4257     7526     7528 1
    4258     5960     5962 1
    4259     9794     9796 1
    4260      133      132 1
    4261     8852     8853 1
    4262     7607     7609 1
    4263     7796     7798 1
    4264    11630    11632 1
    4265    11339    11341 1
    4266    11687    11688 1
    4267     5936     5937 1
    4268     1751     1752 1
    4269    10769    10770 1
    4270    10607    10608 1
    4271     1904     1905 1
    4272      682      683 1
    4273     8690     8692 1
    4274     3215     3217 1
    4275     4322     4321 1
    4276     4469     4468 1
    4277     3328     3329 1
    4278     9614     9615 1
    4279     1912     1911 1
    4280     5813     5814 1
    4281     1802     1787 1
    4282     9914     9916 1
    4283    11750    11752 1
    4284     3095     3096 1
    4285    10859    10861 1
    4286      576      577 1
    4287      948      947 1
    4288      833      834 1
    4289     7580     7581 1
    4290    10739    10740 1
    4291     5582     5583 1
    4292     9821     9822 1
    4293     1601     1602 1
    4294     6743     6744 1
    4295     7742     7743 1
    4296     3667     3668 1
    4297     8267     8269 1
    4298    11939    11941 1
    4299    11777    11779 1
    4300     7862     7864 1
    4301     9698     9700 1
    4302     9941     9943 1
    4303     8186     8188 1
    4304    10103    10105 1
    4305     6350     6352 1
    4306     9860     9862 1
    4307     4581     4582 1
    4308        5        6 1
    4309     4512     4513 1
    4310    10064    10065 1
    4311      201      202 1
    4312     9002     9003 1
    4313     2182     2167 1
    4314     7616     7618 1
    4315     7886     7888 1
    4316    11720    11722 1
    4317     6050     6052 1
    4318     7805     7807 1
    4319     7535     7537 1
    4320     9533     9535 1
    4321     9371     9373 1
    4322     3703     3701 1
    4323     3511     3512 1
    4324     8279     8281 1
    4325    10655    10656 1
    4326     4033     4032 1
    4327     4940     4941 1
    4328     4018     4019 1
    4329      373      374 1
    4330     4646     4647 1
    4331     3991     3992 1
    4332     1277     1278 1
    4333     4874     4875 1
    4334    10835    10836 1
    4335     3717     3718 1
    4336    11792    11793 1
    4337     3748     3751 1
    4338     2264     2265 1
    4339    12245    12246 1
    4340     6179     6181 1
    4341     2736     2735 1
    4342     6893     6894 1
    4343     5732     5733 1
    4344     7055     7056 1
    4345     6515     6516 1
    4346     5192     5193 1
    4347     2475     2476 1
    4348     8972     8973 1
    4349      763      764 1
    4350     5009     5010 1
    4351     8810     8811 1
    4352     8924     8925 1
    4353     6668     6670 1
    4354    11618    11620 1
    4355    10151    10152 1
    4356     1798     1799 1
    4357     8072     8073 1
    4358     5993     5994 1
    4359     8153     8154 1
    4360     3500     3501 1
    4361     6317     6318 1
    4362     6074     6075 1
    4363     4994     4995 1
    4364     4201     4200 1
    4365     8627     8629 1
    4366     2702     2703 1
    4367      101      100 1
    4368     1770     1771 1
    4369    11960    11962 1
    4370      720      721 1
    4371     2331     2332 1
    4372     8273     8275 1
    4373      883      884 1
    4374     5486     5488 1
    4375     8648     8649 1
    4376     7955     7956 1
    4377     4907     4909 1
    4378     3269     3271 1
    4379     7490     7492 1
    4380     7301     7303 1
    4381     9650     9652 1
    4382     9488     9490 1
    4383     7814     7816 1
    4384     7220     7222 1
    4385     7409     7411 1
    4386    11216    11218 1
    4387     7382     7384 1
    4388    11135    11137 1
    4389      513      514 1
    4390     1116     1118 1
    4391     1673     1674 1
    4392     4575     4560 1
    4393     3830     3831 1
    4394    10823    10824 1
    4395     6371     6373 1
    4396     2512     2513 1
    4397       21       22 1
    4398    11906    11908 1
    4399     5762     5763 1
    4400     5216     5217 1
    4401     6728     6729 1
    4402    10562    10563 1
    4403     6971     6972 1
    4404     5459     5460 1
    4405     8375     8376 1
    4406     6539     6540 1
    4407    10373    10374 1
    4408     5648     5649 1
    4409     8564     8565 1
    4410      115      120 1
    4411       26       27 1
    4412     3926     3927 1
    4413     2418     2419 1
    4414    10211    10212 1
    4415     2028     2014 1
    4416    10505    10506 1
    4417     5888     5889 1
    4418    10721    10722 1
    4419     8588     8589 1
    4420     5348     5349 1
    4421    10883    10884 1
    4422     8681     8682 1
    4423     6509     6510 1
    4424     2989     2988 1
    4425     4537     4538 1
    4426     7532     7533 1
    4427     3061     3062 1
    4428     4448     4449 1
    4429     4523     4524 1
    4430     4376     4377 1
    4431    10109    10110 1
    4432     5657     5659 1
    4433     1682     1685 1
    4434     1419     1420 1
    4435     2478     2479 1
    4436     3344     3345 1
    4437     4676     4678 1
    4438     2151     2152 1
    4439     4664     4665 1
    4440      944      945 1
    4441      147      148 1
    4442     2136     2137 1
    4443    12266    12267 1
    4444    11111    11113 1
    4445     8870     8872 1
    4446     9032     9034 1
    4447     5873     5875 1
    4448    10949    10951 1
    4449     7115     7117 1
    4450    10868    10870 1
    4451    10706    10708 1
    4452     2728     2729 1
    4453      792      793 1
    4454     9722     9723 1
    4455     8888     8890 1
    4456    10967    10969 1
    4457     2597     2598 1
    4458    10724    10726 1
    4459    11129    11131 1
    4460    10286    10287 1
    4461     4203     4204 1
    4462     3301     3302 1
    4463    10886    10888 1
    4464     2647     2648 1
    4465    11468    11470 1
    4466     6803     6804 1
    4467     6410     6412 1
    4468     2642     2644 1
    4469      742      743 1
    4470     1187     1188 1
    4471     7280     7281 1
    4472     7808     7809 1
    4473     2766     2767 1
    4474     2364     2365 1
    4475     2760     2761 1
    4476     6926     6928 1
    4477     4391     4392 1
    4478     2116     2117 1
    4479     4625     4626 1
    4480    10973    10975 1
    4481    11168    11170 1
    4482     5444     5446 1
    4483     6443     6445 1
    4484     8360     8362 1
    4485     9440     9442 1
    4486    11195    11197 1
    4487    12194    12196 1
    4488    10277    10279 1
    4489     7361     7363 1
    4490    11771    11773 1
    4491     1681     1686 1
    4492     9731     9732 1
    4493     9893     9894 1
    4494     6140     6141 1
    4495    11729    11730 1
    4496     4691     4693 1
    4497     7895     7896 1
    4498    11972    11973 1
    4499      273      274 1
    4500    11810    11811 1
    4501     7976     7977 1
    4502     6422     6424 1
    4503     9971     9973 1
    4504     2341     2340 1
    4505    10652    10653 1
    4506     5495     5496 1
    4507     1346     1347 1
    4508     1564     1565 1
    4509      692      693 1
    4510     7580     7582 1
    4511      148      149 1
    4512      708      713 1
    4513     1965     1966 1
    4514     8531     8533 1
    4515      839      838 1
    4516      390      391 1
    4517     2825     2826 1
    4518      238      239 1
    4519     8945     8946 1
    4520       79       80 1
    4521     2927     2928 1
    4522     6923     6924 1
    4523     6572     6573 1
    4524     3564     3565 1
    4525     3576     3577 1
    4526     4943     4945 1
    4527      719      720 1
    4528     4221     4222 1
    4529      835      836 1
    4530      832      833 1
    4531     8990     8992 1
    4532    11177    11179 1
    4533     6911     6913 1
    4534     8828     8830 1
    4535     8936     8938 1
    4536     9098     9100 1
    4537     5750     5752 1
    4538     3299     3300 1
    4539    11015    11017 1
    4540     7181     7183 1
    4541    10103    10104 1
    4542     3603     3602 1
    4543     3874     3875 1
    4544     2796     2797 1
    4545     2436     2437 1
    4546     1372     1373 1
    4547     3838     3839 1
    4548     2479     2480 1
    4549    10874    10876 1
    4550     8522     8523 1
    4551    11357    11358 1
    4552     5606     5607 1
    4553     7523     7524 1
    4554    10439    10440 1
    4555     6605     6606 1
    4556     6767     6768 1
    4557     9602     9603 1
    4558      906      907 1
    4559    10007    10009 1
    4560    10787    10788 1
    4561     7223     7224 1
    4562    11138    11139 1
    4563     6872     6873 1
    4564     5792     5793 1
    4565     8708     8709 1
    4566     7304     7305 1
    4567    11219    11220 1
    4568     5711     5712 1
    4569     8951     8952 1
    4570     3627     3626 1
    4571     3951     3952 1
    4572    11099    11100 1
    4573     5267     5268 1
    4574     8183     8184 1
    4575     6590     6591 1
    4576     6428     6429 1
    4577    10262    10263 1
    4578     9344     9345 1
    4579    11261    11262 1
    4580     4850     4851 1
    4581     7931     7933 1
    4582    12089    12091 1
    4583    12170    12172 1
    4584     7688     7690 1
    4585     5015     5017 1
    4586    11684    11686 1
    4587    12008    12010 1
    4588     5933     5935 1
    4589     3100     3102 1
    4590     8012     8014 1
    4591      878      879 1
    4592    11612    11614 1
    4593     9068     9070 1
    4594     2087     2072 1
    4595     3121     3122 1
    4596    10199    10200 1
    4597     7169     7171 1
    4598     4208     4209 1
    4599     4580     4581 1
    4600      548      550 1
    4601     4430     4431 1
    4602     2992     2995 1
    4603     4028     4029 1
    4604     4460     4461 1
    4605     4471     4472 1
    4606     4318     4319 1
    4607     4324     4325 1
    4608     8363     8364 1
    4609     5447     5448 1
    4610     8903     8904 1
    4611     7148     7149 1
    4612     6446     6447 1
    4613     6986     6987 1
    4614    10280    10281 1
    4615    10820    10821 1
    4616     6662     6663 1
    4617     3909     3914 1
    4618     6407     6409 1
    4619    10526    10528 1
    4620     2502     2499 1
    4621     8447     8449 1
    4622     6692     6694 1
    4623     8609     8611 1
    4624     8960     8962 1
    4625     1588     1589 1
    4626     1161     1162 1
    4627      743      744 1
    4628     3089     3090 1
    4629     4380     4381 1
    4630    10550    10551 1
    4631     8633     8634 1
    4632     3407     3406 1
    4633     4119     4104 1
    4634     4739     4740 1
    4635     6752     6754 1
    4636     5591     5593 1
    4637     9830     9832 1
    4638     7589     7591 1
    4639     7751     7753 1
    4640    12224    12226 1
    4641     3173     3174 1
    4642     4491     4492 1
    4643    10748    10750 1
    4644     1385     1386 1
    4645     4772     4773 1
    4646     4844     4845 1
    4647     9302     9304 1
    4648     2356     2357 1
    4649     1530     1531 1
    4650      461      462 1
    4651     8336     8337 1
    4652     7550     7552 1
    4653     7874     7876 1
    4654    11708    11710 1
    4655     5957     5959 1
    4656     9791     9793 1
    4657     7793     7795 1
    4658     3714     3715 1
    4659     9467     9469 1
    4660     9386     9388 1
    4661     7631     7633 1
    4662      438      443 1
    4663     3060     3061 1
    4664     3126     3105 1
    4665     7112     7114 1
    4666     9671     9673 1
    4667     3901     3902 1
    4668     5015     5016 1
    4669     3694     3697 1
    4670     8108     8109 1
    4671     9863     9864 1
    4672     5111     5112 1
    4673     7946     7947 1
    4674     9944     9945 1
    4675     8027     8028 1
    4676     6110     6111 1
    4677     6191     6192 1
    4678     9503     9504 1
    4679     5426     5427 1
    4680    11420    11421 1
    4681     4370     4371 1
    4682     7424     7425 1
    4683    10421    10422 1
    4684     8342     8343 1
    4685    12338    12339 1
    4686      817      822 1
    4687    10583    10584 1
    4688       61       62 1
    4689     4214     4215 1
    4690     4784     4785 1
    4691     6278     6280 1
    4692     1046     1047 1
    4693      834      835 1
    4694     5048     5050 1
    4695     1247     1248 1
    4696     1902     1903 1
    4697     1980     1981 1
    4698     1292     1291 1
    4699     2517     2518 1
    4700     7865     7866 1
    4701     1547     1548 1
    4702     4669     4670 1
    4703      300      299 1
    4704    11900    11901 1
    4705     3778     3779 1
    4706     2709     2710 1
    4707     3569     3570 1
    4708     4823     4824 1
    4709     6005     6007 1
    4710     6329     6331 1
    4711     9677     9679 1
    4712     9245     9247 1
    4713     6167     6169 1
    4714     8246     8248 1
    4715    11324    11326 1
    4716     8408     8410 1
    4717     8084     8086 1
    4718     6842     6844 1
    4719      319      320 1
    4720     2827     2828 1
    4721      414      416 1
    4722     4272     4273 1
    4723     4278     4279 1
    4724     4125     4126 1
    4725    11834    11836 1
    4726      684      686 1
    4727      942      943 1
    4728     4663     4664 1
    4729     3650     3651 1
    4730     1154     1155 1
    4731     2501     2502 1
    4732     8384     8386 1
    4733     1813     1814 1
    4734     2110     2111 1
    4735      109      112 1
    4736      572      573 1
    4737     1435     1436 1
    4738      781      782 1
    4739     1195     1196 1
    4740     1255     1254 1
    4741     8039     8041 1
    4742     6122     6124 1
    4743     7583     7585 1
    4744     3409     3410 1
    4745     2182     2183 1
    4746     7307     7308 1
    4747     5351     5352 1
    4748     2998     2999 1
    4749     8348     8349 1
    4750    11303    11304 1
    4751    12344    12345 1
    4752     4949     4950 1
    4753     7226     7227 1
    4754     7388     7389 1
    4755    11141    11142 1
    4756     1821     1806 1
    4757     4099     4100 1
    4758     3992     3994 1
    4759     1883     1884 1
    4760     1992     1977 1
    4761     3241     3242 1
    4762     6098     6099 1
    4763     9932     9933 1
    4764    10094    10095 1
    4765     7853     7854 1
    4766     6935     6936 1
    4767     1988     1989 1
    4768     3802     3805 1
    4769     1779     1778 1
    4770    10931    10932 1
    4771     2425     2426 1
    4772     4392     4393 1
    4773     6809     6810 1
    4774     1558     1559 1
    4775     3235     3234 1
    4776     2320     2321 1
    4777     4285     4284 1
    4778     4805     4806 1
    4779     3364     3366 1
    4780     1478     1477 1
    4781     4440     4426 1
    4782       34       35 1
    4783      621      622 1
    4784     1473     1474 1
    4785      440      441 1
    4786    11207    11208 1
    4787      576      578 1
    4788     1224     1226 1
    4789     3028     3029 1
    4790     9713     9715 1
    4791     4134     4135 1
    4792     1606     1607 1
    4793     9608     9610 1
    4794     1615     1616 1
    4795     1076     1077 1
    4796     1449     1450 1
    4797     1486     1487 1
    4798    10022    10023 1
    4799    11396    11398 1
    4800     9641     9643 1
    4801     9209     9211 1
    4802     7724     7726 1
    4803    11558    11560 1
    4804    11288    11290 1
    4805     9452     9454 1
    4806    11450    11452 1
    4807    11207    11209 1
    4808     1184     1185 1
    4809     1617     1618 1
    4810      530      531 1
    4811     9401     9402 1
    4812     4225     4226 1
    4813     3081     3082 1
    4814    11579    11581 1
    4815      494      495 1
    4816      501      503 1
    4817     1844     1845 1
    4818     4637     4638 1
    4819     2343     2348 1
    4820      358      359 1
    4821     6497     6499 1
    4822     8576     8578 1
    4823    10493    10495 1
    4824    10709    10711 1
    4825     5876     5878 1
    4826     5336     5338 1
    4827    10871    10873 1
    4828     3848     3847 1
    4829     1967     1968 1
    4830     3720     3699 1
    4831     3072     3051 1
    4832      460      459 1
    4833     8261     8263 1
    4834     9692     9694 1
    4835     3612     3613 1
    4836     4161     4162 1
    4837      217      220 1
    4838     1726     1727 1
    4839      857      858 1
    4840     3109     3110 1
    4841     4856     4857 1
    4842     2588     2590 1
    4843     2043     2044 1
    4844     7451     7453 1
    4845     2107     2108 1
    4846     1879     1880 1
    4847     1595     1596 1
    4848     2091     2092 1
    4849     2559     2560 1
    4850     2738     2739 1
    4851     4081     4066 1
    4852     4157     4142 1
    4853      808      809 1
    4854     7754     7755 1
    4855     9527     9528 1
    4856    11606    11607 1
    4857    10172    10173 1
    4858      979      980 1
    4859     6563     6564 1
    4860     1585     1586 1
    4861     5996     5998 1
    4862     1081     1084 1
    4863    11999    12000 1
    4864     1207     1208 1
    4865     3837     3836 1
    4866    10922    10923 1
    4867     7046     7048 1
    4868     7289     7291 1
    4869     5615     5617 1
    4870    10448    10450 1
    4871     7208     7210 1
    4872    10529    10531 1
    4873      500      501 1
    4874     8450     8452 1
    4875    11042    11044 1
    4876     9125     9127 1
    4877     4210     4211 1
    4878     7658     7659 1
    4879     2793     2794 1
    4880     6026     6027 1
    4881      986      985 1
    4882     2584     2585 1
    4883     3691     3692 1
    4884     2122     2123 1
    4885     2197     2198 1
    4886     4886     4888 1
    4887    11051    11053 1
    4888     8594     8596 1
    4889    10511    10513 1
    4890     8432     8434 1
    4891     9134     9136 1
    4892      231      232 1
    4893     2308     2309 1
    4894     1921     1922 1
    4895     6677     6679 1
    4896     3221     3222 1
    4897     1623     1624 1
    4898      879      881 1
    4899      872      874 1
    4900     6326     6327 1
    4901    11813    11814 1
    4902    11921    11922 1
    4903     8087     8088 1
    4904    11975    11976 1
    4905     7898     7899 1
    4906     9854     9855 1
    4907    11759    11760 1
    4908     6008     6009 1
    4909     9734     9735 1
    4910     6143     6144 1
    4911     3947     3946 1
    4912    11963    11964 1
    4913     7211     7212 1
    4914    11045    11046 1
    4915     9128     9129 1
    4916     9290     9291 1
    4917     7049     7050 1
    4918     7661     7663 1
    4919     5663     5665 1
    4920    10658    10660 1
    4921    11657    11659 1
    4922     8741     8743 1
    4923     9578     9580 1
    4924     3631     3632 1
    4925     2538     2539 1
    4926      567      568 1
    4927     3846     3847 1
    4928     2452     2454 1
    4929     2357     2358 1
    4930     5969     5971 1
    4931    11462    11463 1
    4932      689      690 1
    4933      477      478 1
    4934     3964     3966 1
    4935     6776     6777 1
    4936      593      592 1
    4937     1250     1253 1
    4938     1837     1838 1
    4939     2209     2210 1
    4940     2293     2294 1
    4941     3664     3665 1
    4942     8189     8191 1
    4943     5864     5866 1
    4944     1472     1473 1
    4945     8174     8175 1
    4946     6581     6582 1
    4947     8417     8418 1
    4948     6338     6339 1
    4949     8255     8256 1
    4950    10253    10254 1
    4951     6176     6177 1
    4952     6419     6420 1
    4953     5258     5259 1
    4954     5417     5418 1
    4955     8618     8620 1
    4956     4901     4903 1
    4957     8456     8458 1
    4958     6701     6703 1
    4959    11048    11050 1
    4960     8537     8539 1
    4961    10454    10456 1
    4962     9131     9133 1
    4963     7295     7297 1
    4964     7457     7459 1
    4965     2694     2695 1
    4966     2662     2664 1
    4967    10325    10327 1
    4968     6089     6090 1
    4969    12200    12201 1
    4970     3815     3816 1
    4971     1412     1413 1
    4972     6818     6820 1
    4973     8939     8941 1
    4974     3651     3652 1
    4975     2450     2449 1
    4976     4299     4298 1
    4977     4152     4151 1
    4978     2944     2943 1
    4979     3644     3645 1
    4980      679      680 1
    4981     6794     6795 1
    4982     2726     2727 1
    4983     4346     4347 1
    4984      716      715 1
    4985     3428     3429 1
    4986     5177     5178 1
    4987    11522    11523 1
    4988     3759     3760 1
    4989     2297     2298 1
    4990     9395     9396 1
    4991     9341     9342 1
    4992     6047     6048 1
    4993     3118     3119 1
    4994     4538     4539 1
    4995    11096    11097 1
    4996     6938     6939 1
    4997     4071     4072 1
    4998     7640     7641 1
    4999    11798    11799 1
    5000     4328     4329 1
    5001     4516     4515 1
    5002     2470     2471 1
    5003      622      623 1
    5004     1476     1477 1
    5005      373      372 1
    5006     2178     2179 1
    5007      862      861 1
    5008     1295     1296 1
    5009       52       53 1
    5010     3219     3220 1
    5011     9050     9052 1
    5012     7415     7416 1
    5013    10541    10543 1
    5014     5168     5170 1
    5015     3454     3455 1
    5016     6545     6547 1
    5017     5546     5548 1
    5018     8786     8788 1
    5019      298      299 1
    5020     5006     5008 1
    5021       94       95 1
    5022    10001    10003 1
    5023     3053     3054 1
    5024      431      432 1
    5025     2563     2558 1
    5026    11867    11869 1
    5027     6467     6469 1
    5028     7070     7071 1
    5029     8969     8970 1
    5030     1249     1254 1
    5031     2579     2580 1
    5032     3866     3867 1
    5033      771      773 1
    5034     2764     2765 1
    5035     2979     2980 1
    5036    10277    10278 1
    5037     6443     6444 1
    5038     9440     9441 1
    5039     8360     8361 1
    5040    12194    12195 1
    5041     5444     5445 1
    5042     7361     7362 1
    5043    11195    11196 1
    5044     3596     3597 1
    5045     2513     2514 1
    5046    12179    12180 1
    5047    11855    11856 1
    5048     9182     9183 1
    5049    12017    12018 1
    5050     7103     7104 1
    5051     7265     7266 1
    5052     9020     9021 1
    5053     8021     8022 1
    5054     5105     5106 1
    5055     6266     6267 1
    5056      998      997 1
    5057     7478     7480 1
    5058     7139     7140 1
    5059      660      661 1
    5060      569      568 1
    5061      460      461 1
    5062     3144     3145 1
    5063     2987     2988 1
    5064     1085     1086 1
    5065     4603     4602 1
    5066     4283     4284 1
    5067     9248     9250 1
    5068    11327    11329 1
    5069    10760    10762 1
    5070    10598    10600 1
    5071     9410     9412 1
    5072     8843     8845 1
    5073    11489    11491 1
    5074     8681     8683 1
    5075     5765     5767 1
    5076     7331     7333 1
    5077     1946     1947 1
    5078      161      162 1
    5079     4165     4166 1
    5080     1799     1800 1
    5081     1357     1358 1
    5082     1141     1142 1
    5083      926      927 1
    5084     6035     6036 1
    5085    10058    10059 1
    5086    10364    10366 1
    5087     5369     5371 1
    5088     9203     9205 1
    5089    11444    11446 1
    5090    12281    12283 1
    5091     5207     5209 1
    5092      510      511 1
    5093    11282    11284 1
    5094     6530     6532 1
    5095      952      953 1
    5096     1664     1665 1
    5097     3198     3197 1
    5098    11273    11274 1
    5099     6530     6531 1
    5100     4381     4382 1
    5101     3529     3530 1
    5102     1579     1580 1
    5103     2938     2941 1
    5104     5045     5046 1
    5105     3405     3406 1
    5106     6359     6361 1
    5107     4640     4641 1
    5108     1546     1547 1
    5109     3234     3213 1
    5110     2537     2538 1
    5111     3194     3195 1
    5112     3365     3366 1
    5113     4805     4807 1
    5114     4645     4646 1
    5115     4499     4484 1
    5116     7949     7951 1
    5117     6689     6690 1
    5118     1538     1537 1
    5119      600      605 1
    5120    10406    10407 1
    5121    10298    10299 1
    5122     8219     8220 1
    5123    12323    12324 1
    5124    10568    10569 1
    5125     6464     6465 1
    5126     8651     8652 1
    5127     8489     8490 1
    5128     8327     8328 1
    5129     5411     5412 1
    5130     3823     3822 1
    5131    12104    12105 1
    5132    11942    11943 1
    5133     6272     6273 1
    5134    12023    12024 1
    5135    10025    10026 1
    5136     8270     8271 1
    5137    10106    10107 1
    5138     5030     5031 1
    5139    10187    10188 1
    5140     8189     8190 1
    5141      698      699 1
    5142      421      422 1
    5143     1075     1076 1
    5144      212      213 1
    5145     2265     2266 1
    5146      625      626 1
    5147     2005     2006 1
    5148     8903     8905 1
    5149    12239    12241 1
    5150     8933     8934 1
    5151     5138     5139 1
    5152     2837     2838 1
    5153     2612     2617 1
    5154      103      104 1
    5155      210      211 1
    5156      379      382 1
    5157     8234     8236 1
    5158     8477     8479 1
    5159    10070    10072 1
    5160     5237     5239 1
    5161     6236     6238 1
    5162    12068    12070 1
    5163      539      540 1
    5164    10313    10315 1
    5165     6479     6481 1
    5166    12149    12151 1
    5167     3517     3518 1
    5168     3539     3541 1
    5169     3408     3409 1
    5170     2194     2195 1
    5171       18       19 1
    5172     3802     3803 1
    5173     1849     1850 1
    5174     2233     2234 1
    5175     1996     1997 1
    5176     6755     6756 1
    5177     7793     7794 1
    5178     7874     7875 1
    5179     5957     5958 1
    5180     9791     9792 1
    5181    11708    11709 1
    5182    10751    10752 1
    5183     5594     5595 1
    5184     7550     7551 1
    5185     5675     5676 1
    5186      694      695 1
    5187     7817     7818 1
    5188     7493     7494 1
    5189     5333     5334 1
    5190     8573     8574 1
    5191     6494     6495 1
    5192    10490    10491 1
    5193     3945     3946 1
    5194     2428     2429 1
    5195       62       64 1
    5196     6833     6834 1
    5197     5744     5746 1
    5198    10361    10363 1
    5199     5204     5206 1
    5200     8822     8824 1
    5201     6905     6907 1
    5202    12011    12012 1
    5203    12173    12174 1
    5204    11849    11850 1
    5205     6260     6261 1
    5206     9176     9177 1
    5207     7259     7260 1
    5208     7097     7098 1
    5209     5099     5100 1
    5210      770      771 1
    5211     8015     8016 1
    5212     7094     7095 1
    5213    12245    12247 1
    5214     5009     5011 1
    5215     2123     2109 1
    5216     8924     8926 1
    5217     4277     4278 1
    5218     4826     4828 1
    5219      933      934 1
    5220     2214     2215 1
    5221     9806     9808 1
    5222      805      806 1
    5223     6632     6634 1
    5224     4474     4475 1
    5225     1581     1583 1
    5226     2704     2705 1
    5227     2828     2833 1
    5228    10064    10066 1
    5229     4659     4660 1
    5230     6590     6592 1
    5231     1070     1071 1
    5232     4046     4048 1
    5233     1244     1246 1
    5234      408      409 1
    5235    11201    11202 1
    5236     3419     3420 1
    5237     9479     9481 1
    5238     7562     7564 1
    5239     7643     7645 1
    5240     9317     9319 1
    5241     7481     7483 1
    5242     9398     9400 1
    5243     4036     4037 1
    5244     6281     6283 1
    5245     2749     2750 1
    5246     3213     3214 1
    5247     8345     8346 1
    5248     3869     3870 1
    5249     3872     3873 1
    5250     7418     7420 1
    5251      458      459 1
    5252     3823     3824 1
    5253     2668     2669 1
    5254     9116     9118 1
    5255     7199     7201 1
    5256     9278     9280 1
    5257     4946     4947 1
    5258    10655    10657 1
    5259     5660     5662 1
    5260     7037     7039 1
    5261    11792    11794 1
    5262       13       14 1
    5263     8738     8740 1
    5264     4832     4834 1
    5265     5762     5764 1
    5266     2675     2676 1
    5267     4574     4575 1
    5268    11744    11745 1
    5269      570      571 1
    5270    10271    10272 1
    5271     8756     8757 1
    5272     5516     5517 1
    5273     3478     3481 1
    5274    10673    10674 1
    5275    12014    12015 1
    5276    11852    11853 1
    5277     6263     6264 1
    5278     3987     3988 1
    5279     5021     5022 1
    5280     5183     5184 1
    5281     3703     3704 1
    5282     5102     5103 1
    5283    12095    12096 1
    5284     2092     2093 1
    5285     4142     4143 1
    5286     4769     4770 1
    5287     2076     2077 1
    5288      296      297 1
    5289     2100     2101 1
    5290     4031     4032 1
    5291    11573    11574 1
    5292     2781     2782 1
    5293      578      579 1
    5294      760      761 1
    5295     1051     1052 1
    5296      478      479 1
    5297     7328     7329 1
    5298    12206    12207 1
    5299     6302     6304 1
    5300     4979     4981 1
    5301     6059     6061 1
    5302      893      894 1
    5303     5060     5062 1
    5304     1544     1545 1
    5305     8138     8140 1
    5306     3722     3724 1
    5307     3672     3673 1
    5308      295      296 1
    5309      980      983 1
    5310      750      751 1
    5311     1616     1617 1
    5312     6845     6846 1
    5313     6803     6805 1
    5314     2997     2998 1
    5315     4126     4127 1
    5316     4363     4364 1
    5317       50       51 1
    5318     4657     4658 1
    5319     2041     2042 1
    5320     1423     1424 1
    5321     1149     1151 1
    5322     6893     6895 1
    5323     5192     5194 1
    5324     8972     8974 1
    5325     8810     8812 1
    5326     5732     5734 1
    5327     7055     7057 1
    5328    12266    12268 1
    5329     1527     1528 1
    5330    10349    10351 1
    5331     5354     5356 1
    5332     1142     1144 1
    5333     9758     9759 1
    5334    10697    10698 1
    5335     8780     8781 1
    5336     7241     7242 1
    5337     5336     5337 1
    5338    10709    10710 1
    5339     5540     5541 1
    5340     8576     8577 1
    5341     6497     6498 1
    5342     3585     3586 1
    5343    10493    10494 1
    5344     5567     5569 1
    5345    10049    10050 1
    5346     8420     8421 1
    5347     3726     3725 1
    5348     3738     3737 1
    5349     3420     3417 1
    5350     5432     5434 1
    5351     1498     1499 1
    5352     8510     8512 1
    5353    11714    11715 1
    5354     7880     7881 1
    5355     5963     5964 1
    5356     9797     9798 1
    5357     2966     2967 1
    5358     7799     7800 1
    5359     2157     2156 1
    5360     9365     9366 1
    5361    11876    11877 1
    5362     3862     3863 1
    5363     3977     3978 1
    5364     9611     9612 1
    5365     1202     1203 1
    5366     2170     2169 1
    5367    10652    10654 1
    5368     5495     5497 1
    5369     3350     3351 1
    5370     9560     9562 1
    5371     2929     2930 1
    5372    11222    11223 1
    5373     3976     3977 1
    5374     2689     2690 1
    5375     2440     2439 1
    5376     1686     1687 1
    5377     1984     1985 1
    5378      208      209 1
    5379    10193    10195 1
    5380     6953     6955 1
    5381     5630     5632 1
    5382     4715     4717 1
    5383    10625    10627 1
    5384    10544    10546 1
    5385    10031    10033 1
    5386    12029    12031 1
    5387     8789     8791 1
    5388     5549     5551 1
    5389     3128     3129 1
    5390     4364     4350 1
    5391     2029     2030 1
    5392     3358     3359 1
    5393     4958     4959 1
    5394     5120     5122 1
    5395     6539     6541 1
    5396    10373    10375 1
    5397     8807     8809 1
    5398     5648     5650 1
    5399     8564     8566 1
    5400    10292    10294 1
    5401     6971     6973 1
    5402     8375     8377 1
    5403    12209    12211 1
    5404     5459     5461 1
    5405      323      322 1
    5406     6572     6574 1
    5407    11549    11550 1
    5408     2349     2350 1
    5409     5888     5890 1
    5410    10505    10507 1
    5411     8588     8590 1
    5412     5348     5350 1
    5413     4522     4523 1
    5414     4375     4376 1
    5415     6509     6511 1
    5416    10883    10885 1
    5417    10721    10723 1
    5418     8093     8095 1
    5419      851      850 1
    5420     4528     4529 1
    5421     3844     3845 1
    5422     3190     3191 1
    5423     4622     4623 1
    5424     4091     4092 1
    5425     4166     4167 1
    5426      521      522 1
    5427      170      173 1
    5428     1227     1228 1
    5429     1018     1019 1
    5430     2084     2085 1
    5431      228      223 1
    5432     3590     3591 1
    5433     4970     4972 1
    5434      602      604 1
    5435     3215     3216 1
    5436       36       37 1
    5437     9008     9010 1
    5438       56       58 1
    5439     9710     9712 1
    5440    11681    11683 1
    5441     8846     8848 1
    5442     9764     9766 1
    5443    10763    10765 1
    5444    10601    10603 1
    5445    11519    11521 1
    5446     1682     1684 1
    5447     5768     5770 1
    5448     7685     7687 1
    5449     8684     8686 1
    5450    10331    10332 1
    5451     7868     7869 1
    5452     3029     3030 1
    5453     8018     8019 1
    5454     1430     1431 1
    5455     2681     2682 1
    5456     3757     3758 1
    5457     2049     2050 1
    5458     2446     2448 1
    5459     4817     4818 1
    5460     2187     2188 1
    5461     2271     2272 1
    5462     6725     6727 1
    5463     5966     5968 1
    5464      925      930 1
    5465     3999     4000 1
    5466     4005     4006 1
    5467     6020     6021 1
    5468     2713     2714 1
    5469     9260     9262 1
    5470     5720     5722 1
    5471     8279     8280 1
    5472    10346    10347 1
    5473     9623     9625 1
    5474     4739     4741 1
    5475     9038     9040 1
    5476     2720     2725 1
    5477     6083     6084 1
    5478     3028     3027 1
    5479     5051     5052 1
    5480     3736     3737 1
    5481     1364     1363 1
    5482     4988     4990 1
    5483     8147     8149 1
    5484     6068     6070 1
    5485    11900    11902 1
    5486     8066     8068 1
    5487    10499    10500 1
    5488     4697     4698 1
    5489     5882     5883 1
    5490    10145    10147 1
    5491     6311     6313 1
    5492     8582     8583 1
    5493     1212     1213 1
    5494     5342     5343 1
    5495     6503     6504 1
    5496    10877    10878 1
    5497     5042     5044 1
    5498    10199    10201 1
    5499     4420     4421 1
    5500     2680     2681 1
    5501     3988     3989 1
    5502     4366     4351 1
    5503     1779     1780 1
    5504     3096     3097 1
    5505     1581     1582 1
    5506     1598     1597 1
    5507    12185    12186 1
    5508    12053    12054 1
    5509     2212     2213 1
    5510     2065     2066 1
    5511    10079    10081 1
    5512       78       77 1
    5513     1534     1535 1
    5514     5273     5275 1
    5515      768      769 1
    5516     6851     6852 1
    5517     9470     9471 1
    5518    10847    10848 1
    5519     7553     7554 1
    5520      196      175 1
    5521     5852     5853 1
    5522     5690     5691 1
    5523     7013     7014 1
    5524     9308     9309 1
    5525     2674     2673 1
    5526    10424    10426 1
    5527    11300    11301 1
    5528     8633     8635 1
    5529     3461     3462 1
    5530     3670     3671 1
    5531      731      732 1
    5532     3513     3514 1
    5533     3034     3035 1
    5534     3342     3343 1
    5535     1294     1295 1
    5536     1434     1435 1
    5537    11099    11101 1
    5538     5267     5269 1
    5539     9344     9346 1
    5540     8183     8185 1
    5541    10262    10264 1
    5542     6428     6430 1
    5543     3821     3822 1
    5544     3170     3171 1
    5545     4030     4031 1
    5546    11261    11263 1
    5547     3379     3380 1
    5548     2542     2543 1
    5549     1471     1472 1
    5550     3280     3281 1
    5551     2417     2418 1
    5552     8336     8338 1
    5553      885      886 1
    5554      673      674 1
    5555      882      883 1
    5556     8057     8059 1
    5557    10853    10854 1
    5558     6041     6042 1
    5559      669      668 1
    5560     2195     2196 1
    5561     2811     2812 1
    5562     1192     1190 1
    5563      385      390 1
    5564      655      656 1
    5565     6257     6258 1
    5566    10010    10011 1
    5567     7703     7704 1
    5568    11375    11376 1
    5569     9620     9621 1
    5570    11456    11457 1
    5571     9539     9540 1
    5572     9701     9702 1
    5573     7736     7737 1
    5574    11537    11538 1
    5575     1217     1216 1
    5576     4556     4557 1
    5577     2923     2924 1
    5578     3849     3852 1
    5579      293      294 1
    5580      710      713 1
    5581     2694     2673 1
    5582     2059     2058 1
    5583     4034     4035 1
    5584     3138     3137 1
    5585    11780    11781 1
    5586      224      225 1
    5587     4718     4719 1
    5588     4766     4767 1
    5589      194      195 1
    5590     1269     1270 1
    5591     4573     4559 1
    5592     3322     3321 1
    5593     5114     5116 1
    5594     8840     8842 1
    5595    10757    10759 1
    5596     5924     5926 1
    5597    11675    11677 1
    5598     9029     9031 1
    5599     4509     4510 1
    5600     1185     1186 1
    5601     8030     8032 1
    5602    11108    11110 1
    5603     1628     1631 1
    5604     4287     4288 1
    5605       25       26 1
    5606     4647     4648 1
    5607     2721     2722 1
    5608     4434     4435 1
    5609     1710     1712 1
    5610      544      543 1
    5611     3854     3859 1
    5612     2351     2353 1
    5613      702      701 1
    5614     2762     2763 1
    5615     2556     2557 1
    5616     6023     6024 1
    5617     3149     3150 1
    5618     3439     3440 1
    5619     9863     9865 1
    5620     8027     8029 1
    5621     5111     5113 1
    5622     8108     8110 1
    5623     7946     7948 1
    5624     9944     9946 1
    5625     6110     6112 1
    5626     6191     6193 1
    5627      975      976 1
    5628    12101    12102 1
    5629     5189     5190 1
    5630     5027     5028 1
    5631    12182    12183 1
    5632    12020    12021 1
    5633    11858    11859 1
    5634     6377     6379 1
    5635    11168    11169 1
    5636     5108     5109 1
    5637     8024     8025 1
    5638     4105     4106 1
    5639    12230    12231 1
    5640     3708     3709 1
    5641     4724     4726 1
    5642     4796     4798 1
    5643     7238     7239 1
    5644     7400     7401 1
    5645    11234    11235 1
    5646    11153    11154 1
    5647     7319     7320 1
    5648    11315    11316 1
    5649     1764     1749 1
    5650     1939     1940 1
    5651     5276     5277 1
    5652       78       79 1
    5653     9776     9777 1
    5654     4096     4097 1
    5655     1371     1372 1
    5656     4730     4732 1
    5657      599      600 1
    5658     1302     1307 1
    5659     2290     2291 1
    5660     4385     4370 1
    5661     2447     2448 1
    5662     3743     3744 1
    5663     5063     5065 1
    5664     8141     8143 1
    5665     6062     6064 1
    5666    10139    10141 1
    5667     5981     5983 1
    5668     8303     8305 1
    5669     4982     4984 1
    5670     6305     6307 1
    5671     8060     8062 1
    5672    11894    11896 1
    5673      709      714 1
    5674     3322     3323 1
    5675     2027     2028 1
    5676     4880     4881 1
    5677    12344    12346 1
    5678      669      670 1
    5679     1323     1324 1
    5680     4949     4951 1
    5681    10508    10510 1
    5682     8672     8674 1
    5683     1612     1613 1
    5684     5351     5353 1
    5685     4527     4528 1
    5686     8591     8593 1
    5687      946      947 1
    5688     8369     8370 1
    5689    11606    11608 1
    5690      741      740 1
    5691      326      328 1
    5692     3934     3933 1
    5693     5075     5076 1
    5694      180      179 1
    5695    10922    10924 1
    5696     4619     4620 1
    5697      168      173 1
    5698     4337     4338 1
    5699     2309     2310 1
    5700     1526     1525 1
    5701     2220     2221 1
    5702     4054     4055 1
    5703    10007    10008 1
    5704     3343     3344 1
    5705     5552     5554 1
    5706    10547    10549 1
    5707    12086    12088 1
    5708     5174     5176 1
    5709     8792     8794 1
    5710     8630     8632 1
    5711     3278     3279 1
    5712     3932     3933 1
    5713     1339     1340 1
    5714     1222     1223 1
    5715    10442    10443 1
    5716      979      984 1
    5717    11864    11865 1
    5718     1958     1959 1
    5719     2114     2115 1
    5720     9164     9165 1
    5721     7166     7167 1
    5722    11000    11001 1
    5723     7247     7248 1
    5724     7706     7707 1
    5725    11459    11460 1
    5726    11162    11163 1
    5727     7085     7086 1
    5728    11378    11379 1
    5729     9623     9624 1
    5730     2398     2401 1
    5731     1433     1434 1
    5732     9242     9243 1
    5733     6839     6840 1
    5734     5840     5841 1
    5735     2899     2900 1
    5736     9404     9405 1
    5737     4685     4687 1
    5738    11321    11322 1
    5739     5678     5679 1
    5740     7001     7002 1
    5741    11483    11484 1
    5742     3044     3049 1
    5743     1334     1335 1
    5744     5705     5707 1
    5745      440      442 1
    5746      639      640 1
    5747      203      204 1
    5748     4373     4374 1
    5749      404      405 1
    5750     7709     7711 1
    5751     1691     1692 1
    5752     6776     6778 1
    5753     1203     1204 1
    5754     1941     1942 1
    5755     1869     1870 1
    5756      156      157 1
    5757     2016     2017 1
    5758    12197    12198 1
    5759       66       61 1
    5760      363      362 1
    5761     3016     3017 1
    5762      244      245 1
    5763    10172    10174 1
    5764      188      189 1
    5765     2915     2916 1
    5766     1335     1336 1
    5767     4500     4501 1
    5768     3248     3249 1
    5769     1268     1269 1
    5770     1053     1054 1
    5771     7721     7723 1
    5772     9206     9208 1
    5773    11555    11557 1
    5774     9449     9451 1
    5775     9638     9640 1
    5776    11393    11395 1
    5777    11204    11206 1
    5778    11447    11449 1
    5779    11474    11476 1
    5780     9557     9559 1
    5781     8105     8106 1
    5782     4023     4024 1
    5783     1492     1493 1
    5784     2152     2153 1
    5785     3423     3428 1
    5786     9116     9117 1
    5787    11033    11034 1
    5788     7025     7026 1
    5789    10859    10860 1
    5790     7199     7200 1
    5791    11345    11346 1
    5792     4158     4159 1
    5793     7565     7566 1
    5794     7037     7038 1
    5795     5864     5865 1
    5796     3390     3391 1
    5797    10889    10891 1
    5798    10166    10167 1
    5799     6170     6171 1
    5800     8411     8412 1
    5801     8249     8250 1
    5802     8168     8169 1
    5803    10247    10248 1
    5804     6332     6333 1
    5805     5252     5253 1
    5806     6413     6414 1
    5807     6575     6576 1
    5808     3088     3089 1
    5809     2434     2435 1
    5810     8453     8454 1
    5811     8615     8616 1
    5812     6887     6888 1
    5813     6698     6699 1
    5814     8966     8967 1
    5815     5726     5727 1
    5816    10532    10533 1
    5817     8987     8988 1
    5818     5747     5748 1
    5819     6908     6909 1
    5820     6665     6666 1
    5821     2547     2548 1
    5822     6989     6990 1
    5823     7151     7152 1
    5824     1760     1761 1
    5825     8825     8826 1
    5826     8906     8907 1
    5827      132      131 1
    5828     1907     1908 1
    5829     6650     6652 1
    5830     4467     4468 1
    5831     4320     4321 1
    5832     3161     3163 1
    5833     2413     2414 1
    5834     3339     3340 1
    5835     3772     3773 1
    5836     3760     3761 1
    5837     4811     4813 1
    5838     1196     1198 1
    5839    11639    11640 1
    5840     1114     1093 1
    5841     6902     6904 1
    5842     3876     3877 1
    5843     3222     3223 1
    5844       43       44 1
    5845     1516     1517 1
    5846     4841     4843 1
    5847    10712    10713 1
    5848     5879     5880 1
    5849    11117    11118 1
    5850    10955    10956 1
    5851     9038     9039 1
    5852     8876     8877 1
    5853    10874    10875 1
    5854     7121     7122 1
    5855     8669     8671 1
    5856    11318    11319 1
    5857    11066    11068 1
    5858     9230     9232 1
    5859    10904    10906 1
    5860     9149     9151 1
    5861     3679     3680 1
    5862     3025     3026 1
    5863     4503     4504 1
    5864     4356     4357 1
    5865     4446     4447 1
    5866    10985    10987 1
    5867     5843     5845 1
    5868    11540    11541 1
    5869     1213     1214 1
    5870     1044     1045 1
    5871     4328     4313 1
    5872      187      188 1
    5873    11045    11047 1
    5874     9128     9130 1
    5875     7211     7213 1
    5876     7049     7051 1
    5877     9290     9292 1
    5878     2734     2735 1
    5879     2525     2526 1
    5880    11723    11724 1
    5881     9266     9267 1
    5882     4544     4545 1
    5883     4322     4323 1
    5884     4469     4470 1
    5885     4313     4314 1
    5886     3583     3584 1
    5887     7070     7072 1
    5888      370      371 1
    5889     1236     1237 1
    5890     2565     2566 1
    5891     4397     4398 1
    5892     1445     1446 1
    5893      607      608 1
    5894     1315     1316 1
    5895     3798     3796 1
    5896     3826     3827 1
    5897     6929     6931 1
    5898     5255     5257 1
    5899     6578     6580 1
    5900    11249    11251 1
    5901     7847     7849 1
    5902    10250    10252 1
    5903    11087    11089 1
    5904     8171     8173 1
    5905     9332     9334 1
    5906     6092     6094 1
    5907      488      490 1
    5908     3051     3052 1
    5909     7430     7432 1
    5910     2477     2476 1
    5911     5177     5179 1
    5912    11522    11524 1
    5913     7991     7992 1
    5914     8258     8260 1
    5915     1782     1783 1
    5916    11834    11835 1
    5917     3996     3995 1
    5918    10691    10692 1
    5919     8774     8775 1
    5920     2843     2844 1
    5921     7397     7398 1
    5922      110      112 1
    5923    11231    11232 1
    5924     5534     5535 1
    5925     7235     7236 1
    5926     1267     1268 1
    5927     3353     3354 1
    5928     2160     2161 1
    5929     2307     2308 1
    5930     1926     1927 1
    5931     2830     2831 1
    5932     2296     2297 1
    5933      651      652 1
    5934    11297    11298 1
    5935      886      887 1
    5936     2574     2575 1
    5937     8309     8311 1
    5938     7460     7461 1
    5939      278      281 1
    5940     2482     2483 1
    5941     8246     8247 1
    5942     7406     7407 1
    5943     3790     3791 1
    5944     7700     7701 1
    5945    10715    10716 1
    5946     2275     2261 1
    5947    10784    10786 1
    5948    12215    12217 1
    5949     8381     8383 1
    5950     8705     8707 1
    5951     5789     5791 1
    5952     5303     5305 1
    5953    10460    10462 1
    5954     1535     1536 1
    5955     4149     4150 1
    5956     5465     5467 1
    5957     4638     4639 1
    5958     4107     4108 1
    5959      588      589 1
    5960      323      324 1
    5961      532      533 1
    5962     1392     1393 1
    5963     6035     6037 1
    5964    10058    10060 1
    5965     1016     1017 1
    5966      527      528 1
    5967     4207     4208 1
    5968     4579     4580 1
    5969     3014     3015 1
    5970     2569     2570 1
    5971     1208     1209 1
    5972     1429     1430 1
    5973      775      776 1
    5974     1220     1221 1
    5975     2021     2022 1
    5976     2837     2839 1
    5977      607      606 1
    5978     5045     5047 1
    5979     1419     1421 1
    5980     7679     7680 1
    5981    11519    11520 1
    5982     7685     7686 1
    5983     8846     8847 1
    5984    11681    11682 1
    5985     9764     9765 1
    5986     5930     5931 1
    5987     4137     4138 1
    5988    10763    10764 1
    5989    10601    10602 1
    5990     5768     5769 1
    5991      555      557 1
    5992     2505     2510 1
    5993     2163     2148 1
    5994     2641     2642 1
    5995     1731     1730 1
    5996     7205     7206 1
    5997     9122     9123 1
    5998    11039    11040 1
    5999     9284     9285 1
    6000     7043     7044 1
    6001     2063     2064 1
    6002     5666     5667 1
    6003     8744     8745 1
    6004    10661    10662 1
    6005     5504     5505 1
    6006        2        4 1
    6007      483      482 1
    6008     3363     3366 1
    6009    10043    10044 1
    6010      169      174 1
    6011     4601     4602 1
    6012      554      555 1
    6013     7571     7572 1
    6014     1854     1855 1
    6015     2001     2002 1
    6016     3744     3745 1
    6017      423      422 1
    6018      644      645 1
    6019      632      633 1
    6020     8399     8401 1
    6021    10157    10158 1
    6022     1840     1825 1
    6023     4889     4890 1
    6024     1702     1703 1
    6025     2324     2325 1
    6026     1865     1866 1
    6027     2802     2781 1
    6028     2093     2094 1
    6029     1949     1950 1
    6030     9953     9955 1
    6031     3917     3919 1
    6032    10688    10690 1
    6033     5531     5533 1
    6034     8771     8773 1
    6035     7934     7936 1
    6036     3243     3244 1
    6037     8558     8559 1
    6038     1182     1183 1
    6039     1320     1321 1
    6040     7772     7774 1
    6041      923      922 1
    6042     2334     2319 1
    6043     7358     7359 1
    6044     9182     9184 1
    6045    12017    12019 1
    6046    12179    12181 1
    6047    11855    11857 1
    6048       95       96 1
    6049     7265     7267 1
    6050      524      525 1
    6051     9020     9022 1
    6052     8021     8023 1
    6053      818      819 1
    6054     1281     1280 1
    6055      661      662 1
    6056      536      537 1
    6057    10121    10122 1
    6058     9674     9676 1
    6059     1517     1518 1
    6060     4409     4410 1
    6061     4874     4876 1
    6062     3191     3192 1
    6063     4567     4568 1
    6064     3042     3043 1
    6065     6689     6691 1
    6066      790      769 1
    6067     6770     6771 1
    6068     4079     4065 1
    6069     7598     7599 1
    6070     9515     9516 1
    6071     6680     6681 1
    6072     8597     8598 1
    6073    10514    10515 1
    6074    11594    11595 1
    6075     4082     4083 1
    6076     8435     8436 1
    6077     9353     9354 1
    6078     9005     9006 1
    6079     1561     1562 1
    6080    10214    10216 1
    6081      430      431 1
    6082      215      216 1
    6083     1293     1294 1
    6084     3851     3852 1
    6085     4238     4237 1
    6086     4001     4002 1
    6087     3992     3993 1
    6088     2314     2315 1
    6089     1656     1657 1
    6090     1986     1987 1
    6091      466      445 1
    6092      420      421 1
    6093      853      854 1
    6094     1074     1075 1
    6095     8909     8910 1
    6096     5471     5472 1
    6097     1088     1091 1
    6098    11795    11796 1
    6099     1693     1694 1
    6100    10580    10581 1
    6101     2862     2863 1
    6102     3083     3084 1
    6103      504      505 1
    6104     4100     4085 1
    6105    10745    10747 1
    6106     6749     6751 1
    6107     5588     5590 1
    6108     5669     5671 1
    6109    10664    10666 1
    6110     8747     8749 1
    6111     1614     1615 1
    6112     7052     7054 1
    6113     5507     5509 1
    6114      503      504 1
    6115      294      295 1
    6116     3232     3233 1
    6117     4050     4051 1
    6118     4862     4864 1
    6119     3668     3670 1
    6120    12023    12025 1
    6121     6272     6274 1
    6122    11942    11944 1
    6123    12104    12106 1
    6124     8270     8272 1
    6125    10025    10027 1
    6126    10106    10108 1
    6127     5030     5032 1
    6128    10187    10189 1
    6129     2149     2150 1
    6130     4742     4744 1
    6131    10322    10323 1
    6132     9815     9816 1
    6133    11165    11166 1
    6134    10733    10734 1
    6135     1278     1279 1
    6136     9086     9087 1
    6137     5171     5172 1
    6138     6182     6183 1
    6139    11003    11004 1
    6140     7169     7170 1
    6141     5576     5577 1
    6142     6620     6621 1
    6143     3306     3307 1
    6144     3733     3734 1
    6145     1838     1824 1
    6146     6932     6934 1
    6147     7634     7636 1
    6148     9389     9391 1
    6149    10928    10930 1
    6150     7094     7096 1
    6151     7472     7474 1
    6152     3404     3405 1
    6153     2753     2754 1
    6154     3748     3750 1
    6155     3198     3199 1
    6156     4058     4059 1
    6157     1352     1354 1
    6158     9974     9975 1
    6159    11744    11746 1
    6160     6614     6615 1
    6161     3276     3277 1
    6162      386      389 1
    6163     1866     1867 1
    6164     4124     4125 1
    6165     1950     1951 1
    6166     2372     2374 1
    6167     2206     2207 1
    6168      650      652 1
    6169     3616     3614 1
    6170      235      236 1
    6171     7337     7339 1
    6172     3315     3316 1
    6173      392      393 1
    6174      844      823 1
    6175    10751    10753 1
    6176     6755     6757 1
    6177     5594     5596 1
    6178     5675     5677 1
    6179    10670    10672 1
    6180     8753     8755 1
    6181     5513     5515 1
    6182     7328     7330 1
    6183    10631    10632 1
    6184     1019     1020 1
    6185    11732    11733 1
    6186     2890     2891 1
    6187     1267     1266 1
    6188     6845     6847 1
    6189     2632     2633 1
    6190     2638     2639 1
    6191     2847     2848 1
    6192     2570     2571 1
    6193    10577    10579 1
    6194     3592     3591 1
    6195     2976     2977 1
    6196     4038     4039 1
    6197      629      630 1
    6198     3809     3810 1
    6199     3078     3077 1
    6200     9758     9760 1
    6201     2371     2372 1
    6202    10295    10297 1
    6203    11846    11848 1
    6204     1681     1682 1
    6205     1915     1916 1
    6206     4269     4255 1
    6207     2637     2638 1
    6208     4451     4452 1
    6209     1876     1862 1
    6210     3105     3106 1
    6211     2304     2305 1
    6212     4372     4371 1
    6213     2157     2158 1
    6214     8984     8986 1
    6215     9611     9613 1
    6216     1038     1039 1
    6217     6836     6838 1
    6218      116      119 1
    6219      332      333 1
    6220     3231     3232 1
    6221     1531     1532 1
    6222     2583     2584 1
    6223     2786     2787 1
    6224     5729     5731 1
    6225     7133     7135 1
    6226     2919     2920 1
    6227     3140     3141 1
    6228     7058     7060 1
    6229     6653     6655 1
    6230     6815     6817 1
    6231     6977     6979 1
    6232     5735     5737 1
    6233     8813     8815 1
    6234     6896     6898 1
    6235    10811    10813 1
    6236     8894     8896 1
    6237     7139     7141 1
    6238     4332     4333 1
    6239       31       32 1
    6240     2405     2406 1
    6241     4416     4417 1
    6242       57       58 1
    6243      959      960 1
    6244      468      470 1
    6245      747      748 1
    6246      753      754 1
    6247      538      539 1
    6248     1174     1175 1
    6249     1675     1678 1
    6250     9314     9316 1
    6251     4919     4920 1
    6252     5054     5056 1
    6253      816      821 1
    6254     1214     1215 1
    6255     3012     3013 1
    6256     8756     8758 1
    6257     5516     5518 1
    6258     4265     4266 1
    6259     1997     1998 1
    6260     2333     2334 1
    6261     1856     1857 1
    6262      609      610 1
    6263    10952    10953 1
    6264    10673    10675 1
    6265     1954     1955 1
    6266     3559     3560 1
    6267      393      395 1
    6268     5552     5553 1
    6269    10547    10548 1
    6270    12086    12087 1
    6271     5174     5175 1
    6272     5012     5013 1
    6273     8792     8793 1
    6274     8630     8631 1
    6275     6551     6552 1
    6276     6713     6714 1
    6277     3608     3609 1
    6278     7172     7173 1
    6279     5426     5428 1
    6280     1800     1786 1
    6281     2803     2804 1
    6282    10559    10560 1
    6283    12287    12288 1
    6284    10370    10371 1
    6285     6374     6375 1
    6286     8804     8805 1
    6287     6536     6537 1
    6288     8642     8643 1
    6289     5564     5565 1
    6290     5765     5766 1
    6291     2883     2888 1
    6292     2780     2781 1
    6293     5279     5280 1
    6294     9062     9064 1
    6295     6512     6513 1
    6296     1734     1735 1
    6297     3552     3553 1
    6298     2898     2899 1
    6299     4511     4512 1
    6300     1753     1754 1
    6301    12056    12058 1
    6302     9788     9790 1
    6303     8222     8224 1
    6304     5954     5956 1
    6305     7871     7873 1
    6306     7790     7792 1
    6307     5225     5227 1
    6308     6224     6226 1
    6309    11705    11707 1
    6310     6386     6388 1
    6311    11642    11644 1
    6312     2426     2427 1
    6313     2255     2256 1
    6314     1689     1690 1
    6315     5540     5542 1
    6316     3036     3037 1
    6317     8780     8782 1
    6318     3024     3025 1
    6319    10697    10699 1
    6320     7241     7243 1
    6321     4632     4633 1
    6322    11237    11239 1
    6323    12284    12285 1
    6324     7403     7405 1
    6325    11549    11551 1
    6326     1401     1400 1
    6327     3938     3940 1
    6328     4303     4304 1
    6329      380      382 1
    6330     3055     3053 1
    6331     1885     1886 1
    6332     2044     2045 1
    6333     1969     1970 1
    6334     4419     4418 1
    6335     2267     2266 1
    6336     3377     3378 1
    6337     2026     2027 1
    6338       89       88 1
    6339    12257    12259 1
    6340      346      347 1
    6341      352      353 1
    6342     2060     2061 1
    6343     4976     4977 1
    6344    10133    10134 1
    6345     8135     8136 1
    6346     6299     6300 1
    6347     5975     5976 1
    6348     8297     8298 1
    6349     5057     5058 1
    6350     8054     8055 1
    6351    11888    11889 1
    6352     6056     6057 1
    6353     1356     1361 1
    6354     2196     2197 1
    6355     1058     1059 1
    6356      189      190 1
    6357      818      820 1
    6358     2325     2326 1
    6359      505      506 1
    6360      679      678 1
    6361     4212     4211 1
    6362     1492     1471 1
    6363     4212     4198 1
    6364      665      666 1
    6365     3013     3014 1
    6366      241      242 1
    6367     6632     6633 1
    6368    12053    12055 1
    6369     1917     1918 1
    6370     1391     1392 1
    6371     1973     1958 1
    6372       97       98 1
    6373     1460     1462 1
    6374      204      205 1
    6375    11300    11302 1
    6376     2445     2448 1
    6377    10502    10504 1
    6378     7829     7831 1
    6379     7505     7507 1
    6380     8585     8587 1
    6381     5345     5347 1
    6382     6506     6508 1
    6383     3953     3954 1
    6384     9308     9310 1
    6385      203      202 1
    6386     6281     6282 1
    6387     2581     2582 1
    6388     4727     4729 1
    6389     3558     3537 1
    6390    10250    10251 1
    6391    11087    11088 1
    6392     7847     7848 1
    6393     9332     9333 1
    6394     1062     1063 1
    6395     5255     5256 1
    6396     8171     8172 1
    6397     6929     6930 1
    6398     4386     4387 1
    6399     6578     6579 1
    6400     1342     1343 1
    6401     8099     8100 1
    6402     8438     8439 1
    6403     6683     6684 1
    6404    11057    11058 1
    6405     9140     9141 1
    6406     2534     2535 1
    6407     9683     9685 1
    6408    10895    10896 1
    6409    10517    10518 1
    6410     8600     8601 1
    6411     2437     2438 1
    6412     1914     1900 1
    6413     5123     5125 1
    6414     7958     7960 1
    6415     8120     8122 1
    6416     9956     9958 1
    6417     6203     6205 1
    6418     6557     6558 1
    6419     3189     3190 1
    6420     3843     3844 1
    6421     3614     3615 1
    6422     5558     5559 1
    6423    10553    10554 1
    6424      129      130 1
    6425     8636     8637 1
    6426     8798     8799 1
    6427     6719     6720 1
    6428     1902     1901 1
    6429     1733     1734 1
    6430     7736     7738 1
    6431     4478     4464 1
    6432     2836     2837 1
    6433     4352     4353 1
    6434     4070     4071 1
    6435     4012     4014 1
    6436     4583     4584 1
    6437     2244     2245 1
    6438     3177     3178 1
    6439     1573     1578 1
    6440     3165     3166 1
    6441     3610     3611 1
    6442       46       47 1
    6443    11885    11887 1
    6444     2577     2576 1
    6445     1481     1482 1
    6446     4481     4482 1
    6447     4087     4088 1
    6448     2177     2178 1
    6449     4549     4550 1
    6450    10766    10767 1
    6451     2992     2993 1
    6452     7256     7257 1
    6453     8687     8688 1
    6454     4072     4073 1
    6455    10604    10605 1
    6456     3882     3883 1
    6457     5771     5772 1
    6458     8849     8850 1
    6459     9173     9174 1
    6460        8       10 1
    6461     5855     5857 1
    6462     6854     6856 1
    6463     9851     9853 1
    6464    11768    11770 1
    6465     6017     6019 1
    6466     7016     7018 1
    6467    10850    10852 1
    6468    11930    11932 1
    6469     8096     8098 1
    6470    10307    10308 1
    6471     8795     8796 1
    6472     4688     4690 1
    6473    11588    11589 1
    6474     4556     4541 1
    6475     5900     5901 1
    6476     3164     3165 1
    6477      116      118 1
    6478     3720     3721 1
    6479      845      846 1
    6480     3489     3490 1
    6481     2629     2630 1
    6482      376      377 1
    6483     1168     1169 1
    6484     4307     4293 1
    6485     1539     1540 1
    6486     2502     2500 1
    6487    11060    11062 1
    6488     9143     9145 1
    6489     2036     2035 1
    6490     4258     4259 1
    6491     1889     1888 1
    6492     1133     1134 1
    6493     4736     4738 1
    6494      688      689 1
    6495     9224     9226 1
    6496     3468     3469 1
    6497      142      143 1
    6498     6041     6043 1
    6499     4139     4140 1
    6500    12230    12232 1
    6501    10010    10012 1
    6502     6257     6259 1
    6503     1757     1758 1
    6504     7298     7299 1
    6505     7217     7218 1
    6506     7379     7380 1
    6507    11132    11133 1
    6508    11213    11214 1
    6509     4092     4093 1
    6510    11294    11295 1
    6511      844      845 1
    6512        8        9 1
    6513     3666     3667 1
    6514      619      620 1
    6515      186      187 1
    6516      410      411 1
    6517    10640    10642 1
    6518     1273     1274 1
    6519     4661     4662 1
    6520     2173     2174 1
    6521     5276     5278 1
    6522     6365     6366 1
    6523     2130     2131 1
    6524      736      715 1
    6525    11276    11278 1
    6526     1298     1300 1
    6527     5069     5071 1
    6528     1520     1521 1
    6529     4518     4503 1
    6530    10238    10240 1
    6531     5405     5407 1
    6532      165      166 1
    6533     4240     4241 1
    6534     2918     2919 1
    6535     3781     3782 1
    6536    12242    12243 1
    6537      484      485 1
    6538     5945     5946 1
    6539     5120     5121 1
    6540     3754     3755 1
    6541    10109    10111 1
    6542    10190    10192 1
    6543     7652     7654 1
    6544     9812     9814 1
    6545    12107    12109 1
    6546    10028    10030 1
    6547    11648    11650 1
    6548     6275     6277 1
    6549     4195     4196 1
    6550     9569     9571 1
    6551     6611     6613 1
    6552     4116     4117 1
    6553      535      536 1
    6554     1120     1119 1
    6555     3924     3923 1
    6556     8369     8371 1
    6557     2790     2791 1
    6558      569      570 1
    6559     4412     4413 1
    6560     7703     7705 1
    6561    11375    11377 1
    6562    11456    11458 1
    6563     5075     5077 1
    6564     9539     9541 1
    6565     2193     2192 1
    6566     9620     9622 1
    6567      925      926 1
    6568    11537    11539 1
    6569      494      496 1
    6570     1310     1311 1
    6571    10643    10645 1
    6572     9008     9009 1
    6573     9710     9711 1
    6574     1118     1119 1
    6575     2696     2698 1
    6576     3063     3064 1
    6577     2409     2410 1
    6578     3496     3497 1
    6579     4081     4082 1
    6580      710      712 1
    6581     2189     2190 1
    6582     2593     2594 1
    6583    11093    11094 1
    6584     5261     5262 1
    6585     8177     8178 1
    6586    10256    10257 1
    6587     6422     6423 1
    6588     9338     9339 1
    6589    11255    11256 1
    6590     6584     6585 1
    6591    11864    11866 1
    6592     2237     2223 1
    6593      113      112 1
    6594    12290    12291 1
    6595     8276     8277 1
    6596    12110    12111 1
    6597     2387     2388 1
    6598     3809     3811 1
    6599     1873     1874 1
    6600    10898    10900 1
    6601     1602     1603 1
    6602     3571     3572 1
    6603     7373     7375 1
    6604     2457     2458 1
    6605     9740     9742 1
    6606     2292     2293 1
    6607     1905     1906 1
    6608     1716     1717 1
    6609     1722     1723 1
    6610     5387     5389 1
    6611     5306     5308 1
    6612     9437     9439 1
    6613    11273    11275 1
    6614    11435    11437 1
    6615    10382    10384 1
    6616    10463    10465 1
    6617     5144     5146 1
    6618    12218    12220 1
    6619     7358     7360 1
    6620     2388     2389 1
    6621     1115     1116 1
    6622    12182    12184 1
    6623    11858    11860 1
    6624    12020    12022 1
    6625     5027     5029 1
    6626    12101    12103 1
    6627     5189     5191 1
    6628     2813     2814 1
    6629     5108     5110 1
    6630     8024     8026 1
    6631     6269     6271 1
    6632      537      538 1
    6633       34       13 1
    6634     1661     1662 1
    6635     2010     2011 1
    6636     7238     7240 1
    6637     7400     7402 1
    6638    11234    11236 1
    6639    11153    11155 1
    6640     7319     7321 1
    6641    11315    11317 1
    6642     1399     1400 1
    6643      745      746 1
    6644    10940    10941 1
    6645     7442     7443 1
    6646     4916     4917 1
    6647      574      553 1
    6648     4423     4424 1
    6649      763      768 1
    6650     8666     8667 1
    6651      125      126 1
    6652        6       11 1
    6653     1257     1259 1
    6654     2883     2884 1
    6655     8468     8470 1
    6656     4648     4649 1
    6657     5228     5230 1
    6658     6389     6391 1
    6659     6227     6229 1
    6660    10442    10444 1
    6661    12140    12142 1
    6662     4760     4762 1
    6663    10061    10063 1
    6664     1803     1804 1
    6665     1635     1636 1
    6666     4880     4882 1
    6667     5300     5302 1
    6668    10457    10459 1
    6669     1343     1344 1
    6670      200      201 1
    6671     1066     1067 1
    6672     1821     1822 1
    6673     1518     1523 1
    6674     1303     1308 1
    6675     8483     8485 1
    6676     8642     8644 1
    6677     5213     5215 1
    6678     1860     1861 1
    6679     1858     1859 1
    6680    12197    12199 1
    6681     1008     1009 1
    6682     4194     4195 1
    6683     2741     2742 1
    6684      369      370 1
    6685     1896     1897 1
    6686     3784     3785 1
    6687     2497     2498 1
    6688     2703     2704 1
    6689     1123     1124 1
    6690     8051     8053 1
    6691     3251     3252 1
    6692      135      136 1
    6693     3952     3953 1
    6694     3444     3443 1
    6695     7466     7467 1
    6696     7559     7561 1
    6697     7883     7885 1
    6698    11717    11719 1
    6699      252      253 1
    6700     9800     9802 1
    6701    11879    11881 1
    6702    10853    10855 1
    6703     7019     7021 1
    6704     9476     9478 1
    6705     6857     6859 1
    6706     7577     7578 1
    6707     6107     6108 1
    6708     1584     1585 1
    6709     4438     4439 1
    6710    11540    11542 1
    6711     3828     3807 1
    6712     3414     3415 1
    6713     1168     1147 1
    6714     3127     3128 1
    6715     5840     5842 1
    6716    11321    11323 1
    6717     5678     5680 1
    6718     6839     6841 1
    6719     9404     9406 1
    6720     2573     2574 1
    6721     2080     2081 1
    6722     7325     7327 1
    6723     2234     2235 1
    6724     7001     7003 1
    6725     3582     3583 1
    6726     3914     3915 1
    6727     3554     3553 1
    6728     3509     3510 1
    6729    11936    11937 1
    6730     8102     8103 1
    6731     9857     9858 1
    6732    11774    11775 1
    6733     3424     3425 1
    6734     5861     5862 1
    6735     5699     5700 1
    6736     7022     7023 1
    6737     9695     9696 1
    6738     6860     6861 1
    6739    11228    11229 1
    6740     7394     7395 1
    6741       35       36 1
    6742     7232     7233 1
    6743    11147    11148 1
    6744     7313     7314 1
    6745    11309    11310 1
    6746    11567    11568 1
    6747    11291    11292 1
    6748     3924     3925 1
    6749     2849     2850 1
    6750       96       97 1
    6751     4461     4446 1
    6752     2474     2475 1
    6753     3761     3762 1
    6754     7136     7137 1
    6755     2699     2698 1
    6756      892      893 1
    6757     1316     1317 1
    6758     4347     4348 1
    6759     4252     4253 1
    6760      553      554 1
    6761    11297    11299 1
    6762     8201     8202 1
    6763     5285     5286 1
    6764    12116    12117 1
    6765    10037    10038 1
    6766    11954    11955 1
    6767     6284     6285 1
    6768    12035    12036 1
    6769     5042     5043 1
    6770     8282     8283 1
    6771     3791     3792 1
    6772     7565     7567 1
    6773     7349     7351 1
    6774     5972     5974 1
    6775    11723    11725 1
    6776    11507    11509 1
    6777     9482     9484 1
    6778    12062    12064 1
    6779     2601     2602 1
    6780     7025     7027 1
    6781     5702     5704 1
    6782     1164     1165 1
    6783     1288     1289 1
    6784     1721     1722 1
    6785     3290     3291 1
    6786     8453     8455 1
    6787     8615     8617 1
    6788     6887     6889 1
    6789     6698     6700 1
    6790     8966     8968 1
    6791     5726     5728 1
    6792     3514     3515 1
    6793    10532    10534 1
    6794     8315     8317 1
    6795    10196    10198 1
    6796     4045     4046 1
    6797     2313     2299 1
    6798     3707     3708 1
    6799     5978     5980 1
    6800     7679     7681 1
    6801     2180     2179 1
    6802     1148     1149 1
    6803     7340     7342 1
    6804     7892     7893 1
    6805     6137     6138 1
    6806    11726    11727 1
    6807     9728     9729 1
    6808     5894     5895 1
    6809     4234     4235 1
    6810     9890     9891 1
    6811    11969    11970 1
    6812    11564    11565 1
    6813    11807    11808 1
    6814     1820     1821 1
    6815     3123     3124 1
    6816     2908     2909 1
    6817     7586     7587 1
    6818     9071     9072 1
    6819     9233     9234 1
    6820    10988    10989 1
    6821     7748     7749 1
    6822     9827     9828 1
    6823     3916     3917 1
    6824     2316     2317 1
    6825     1493     1494 1
    6826     6290     6292 1
    6827     6527     6529 1
    6828     4655     4656 1
    6829     4667     4668 1
    6830     7571     7573 1
    6831     8915     8917 1
    6832        5        4 1
    6833     5837     5839 1
    6834      489      490 1
    6835     3429     3430 1
    6836     9296     9297 1
    6837     5681     5682 1
    6838     6005     6006 1
    6839     5891     5893 1
    6840     9965     9967 1
    6841     8570     8572 1
    6842     5330     5332 1
    6843    10487    10489 1
    6844     5222     5224 1
    6845     6383     6385 1
    6846     6221     6223 1
    6847    12134    12136 1
    6848    10055    10057 1
    6849     6491     6493 1
    6850     8462     8464 1
    6851     4335     4336 1
    6852     4188     4189 1
    6853     4572     4573 1
    6854     7538     7540 1
    6855     4062     4063 1
    6856     9506     9507 1
    6857      784      785 1
    6858     4568     4569 1
    6859    10880    10881 1
    6860     3627     3628 1
    6861     3845     3846 1
    6862     2362     2363 1
    6863     3833     3834 1
    6864       62       63 1
    6865     1336     1337 1
    6866     8294     8295 1
    6867    10925    10927 1
    6868     4748     4750 1
    6869     2220     2205 1
    6870     3889     3890 1
    6871     6653     6654 1
    6872     1330     1331 1
    6873    11945    11946 1
    6874     8591     8592 1
    6875     2183     2184 1
    6876      439      440 1
    6877     1848     1849 1
    6878     1923     1924 1
    6879     1749     1750 1
    6880    11408    11410 1
    6881    10409    10411 1
    6882    12326    12328 1
    6883     9653     9655 1
    6884     9491     9493 1
    6885     8654     8656 1
    6886    10571    10573 1
    6887     6944     6946 1
    6888     7412     7414 1
    6889     1708     1687 1
    6890     2674     2675 1
    6891     4712     4714 1
    6892     2181     2182 1
    6893     7790     7791 1
    6894    12137    12138 1
    6895     5018     5020 1
    6896    11174    11176 1
    6897     9095     9097 1
    6898    11012    11014 1
    6899     7178     7180 1
    6900    12092    12094 1
    6901     1379     1380 1
    6902     4176     4177 1
    6903    11795    11797 1
    6904     8933     8935 1
    6905     2931     2934 1
    6906    11225    11226 1
    6907    10580    10582 1
    6908     2637     2636 1
    6909     4378     4379 1
    6910     8315     8316 1
    6911     4525     4526 1
    6912    11264    11265 1
    6913     7745     7746 1
    6914     4868     4869 1
    6915      144      145 1
    6916    12161    12163 1
    6917    11957    11958 1
    6918     3199     3200 1
    6919     3835     3836 1
    6920      329      330 1
    6921     1509     1510 1
    6922       42       43 1
    6923      144      146 1
    6924     4946     4948 1
    6925     3621     3622 1
    6926     7145     7147 1
    6927     6983     6985 1
    6928     1554     1555 1
    6929     5741     5743 1
    6930     6821     6823 1
    6931     6659     6661 1
    6932     8981     8983 1
    6933     8819     8821 1
    6934    10817    10819 1
    6935     8900     8902 1
    6936     3499     3500 1
    6937     6770     6772 1
    6938     1656     1658 1
    6939      546      551 1
    6940    11294    11296 1
    6941     2602     2603 1
    6942     6182     6184 1
    6943     9935     9937 1
    6944      706      707 1
    6945     6437     6438 1
    6946     9434     9435 1
    6947    12350    12351 1
    6948     5438     5439 1
    6949     3208     3209 1
    6950     1835     1836 1
    6951     8354     8355 1
    6952     7355     7356 1
    6953    10016    10017 1
    6954    11189    11190 1
    6955     2802     2803 1
    6956     3315     3320 1
    6957     9458     9459 1
    6958     7784     7785 1
    6959     9377     9378 1
    6960    11861    11862 1
    6961     6029     6030 1
    6962     7541     7542 1
    6963     9782     9783 1
    6964    11699    11700 1
    6965     5948     5949 1
    6966     7622     7623 1
    6967     9167     9168 1
    6968     2587     2586 1
    6969     1072     1073 1
    6970      418      419 1
    6971     2393     2394 1
    6972     1412     1415 1
    6973     9974     9976 1
    6974     2274     2275 1
    6975     2262     2263 1
    6976      395      396 1
    6977      828      829 1
    6978     1806     1807 1
    6979     6614     6616 1
    6980      598      599 1
    6981     1840     1841 1
    6982     3207     3208 1
    6983     4443     4444 1
    6984     3640     3641 1
    6985     5825     5826 1
    6986    10160    10162 1
    6987     6902     6903 1
    6988      677      678 1
    6989     6398     6400 1
    6990     3434     3433 1
    6991    11363    11364 1
    6992     1627     1628 1
    6993      663      664 1
    6994     1347     1348 1
    6995      693      694 1
    6996      902      903 1
    6997     4775     4776 1
    6998     6881     6883 1
    6999      646      647 1
    7000     7079     7080 1
    7001     9986     9987 1
    7002     2626     2625 1
    7003     5912     5914 1
    7004     9746     9748 1
    7005     7910     7912 1
    7006    11825    11827 1
    7007     9989     9991 1
    7008    11987    11989 1
    7009     3944     3945 1
    7010     9908     9910 1
    7011     7991     7993 1
    7012     6155     6157 1
    7013     3164     3163 1
    7014      945      946 1
    7015       15       17 1
    7016    11732    11734 1
    7017     1677     1678 1
    7018      952      931 1
    7019     1772     1773 1
    7020     2640     2619 1
    7021      869      870 1
    7022      683      684 1
    7023     2884     2885 1
    7024     9143     9144 1
    7025    11060    11061 1
    7026     9224     9225 1
    7027     9062     9063 1
    7028    10898    10899 1
    7029      662      663 1
    7030    10979    10980 1
    7031       69       71 1
    7032     8081     8082 1
    7033     6425     6426 1
    7034     3487     3488 1
    7035     3920     3921 1
    7036     9236     9237 1
    7037     9155     9156 1
    7038    11072    11073 1
    7039     2117     2118 1
    7040    10910    10911 1
    7041    10991    10992 1
    7042     9074     9075 1
    7043    11009    11011 1
    7044     9092     9094 1
    7045    11171    11173 1
    7046     7175     7177 1
    7047     5528     5530 1
    7048     8768     8770 1
    7049     8930     8932 1
    7050    10685    10687 1
    7051     2506     2509 1
    7052     3329     3330 1
    7053     1986     1985 1
    7054     3430     3431 1
    7055     3903     3906 1
    7056     2846     2847 1
    7057     1736     1737 1
    7058     1304     1306 1
    7059      919      922 1
    7060      656      658 1
    7061     2175     2176 1
    7062     4850     4852 1
    7063     3392     3393 1
    7064     9752     9754 1
    7065     4024     4025 1
    7066     2321     2322 1
    7067     4075     4076 1
    7068     2174     2175 1
    7069    11441    11442 1
    7070    11279    11280 1
    7071     9443     9444 1
    7072     7364     7365 1
    7073    11198    11199 1
    7074    10616    10617 1
    7075     8699     8700 1
    7076     9200     9201 1
    7077    10631    10633 1
    7078     9719     9720 1
    7079     3510     3511 1
    7080     3522     3523 1
    7081     4673     4674 1
    7082     3586     3587 1
    7083     6716     6717 1
    7084      980      982 1
    7085      263      262 1
    7086      804      805 1
    7087     5507     5508 1
    7088     4039     4040 1
    7089     3167     3168 1
    7090      197      198 1
    7091      304      283 1
    7092      520      521 1
    7093     2657     2658 1
    7094     4188     4187 1
    7095     1327     1328 1
    7096      455      456 1
    7097     3261     3262 1
    7098     5390     5392 1
    7099     4411     4412 1
    7100    10385    10387 1
    7101     6875     6877 1
    7102    10223    10225 1
    7103     7883     7884 1
    7104     3281     3282 1
    7105      261      262 1
    7106     5714     5716 1
    7107     8954     8956 1
    7108      386      388 1
    7109    10946    10948 1
    7110     9794     9795 1
    7111      994      995 1
    7112     1215     1216 1
    7113     7769     7770 1
    7114     7811     7812 1
    7115     7487     7488 1
    7116     5327     5328 1
    7117    10484    10485 1
    7118     6488     6489 1
    7119     8567     8568 1
    7120     5501     5503 1
    7121     8126     8127 1
    7122     3491     3492 1
    7123     7964     7965 1
    7124     6128     6129 1
    7125      876      877 1
    7126     9962     9963 1
    7127     2906     2907 1
    7128     1135     1138 1
    7129     9881     9882 1
    7130     2461     2462 1
    7131      413      414 1
    7132     1243     1246 1
    7133     5279     5281 1
    7134     6791     6793 1
    7135     3478     3479 1
    7136      290      291 1
    7137     3342     3321 1
    7138     1405     1408 1
    7139     2986     2988 1
    7140     2296     2281 1
    7141      914      915 1
    7142     4883     4885 1
    7143     9953     9954 1
    7144     3678     3679 1
    7145     4113     4114 1
    7146     4017     4018 1
    7147     1613     1614 1
    7148      311      312 1
    7149     3482     3477 1
    7150      184      185 1
    7151    12284    12286 1
    7152    10130    10132 1
    7153    11966    11968 1
    7154     1375     1376 1
    7155     4354     4355 1
    7156      721      722 1
    7157     3002     3003 1
    7158     3537     3538 1
    7159     1166     1167 1
    7160     3447     3448 1
    7161      512      513 1
    7162     1590     1591 1
    7163     4262     4261 1
    7164      348      349 1
    7165      560      561 1
    7166     4256     4257 1
    7167     4109     4110 1
    7168     3448     3449 1
    7169     4823     4825 1
    7170     3936     3937 1
    7171     7511     7512 1
    7172     6227     6228 1
    7173    10061    10062 1
    7174     7835     7836 1
    7175     5228     5229 1
    7176     8468     8469 1
    7177     6389     6390 1
    7178    12140    12141 1
    7179       89       90 1
    7180     5399     5400 1
    7181     9926     9928 1
    7182     3633     3636 1
    7183     2186     2187 1
    7184     2424     2403 1
    7185     3674     3675 1
    7186     7556     7557 1
    7187     9311     9312 1
    7188     7637     7638 1
    7189     9392     9393 1
    7190     2073     2072 1
    7191     2138     2139 1
    7192     7475     7476 1
    7193     9473     9474 1
    7194     3547     3548 1
    7195     3980     3981 1
    7196    10031    10032 1
    7197     3067     3068 1
    7198     4532     4533 1
    7199       75       76 1
    7200     2534     2536 1
    7201    10427    10428 1
    7202      935      936 1
    7203     1380     1381 1
    7204     1145     1142 1
    7205     1725     1726 1
    7206     3870     3871 1
    7207      628      629 1
    7208     1662     1663 1
    7209     1416     1411 1
    7210     1790     1791 1
    7211     2024     2025 1
    7212     4078     4079 1
    7213     3450     3429 1
    7214      146      147 1
    7215     3997     3998 1
    7216     4003     4004 1
    7217    10871    10872 1
    7218    11120    11122 1
    7219     8339     8341 1
    7220    12335    12337 1
    7221     5423     5425 1
    7222     2810     2811 1
    7223    10958    10960 1
    7224     8663     8665 1
    7225     9041     9043 1
    7226     4146     4147 1
    7227     8879     8881 1
    7228     1067     1068 1
    7229     1004     1005 1
    7230     1443     1444 1
    7231     6629     6630 1
    7232    10559    10561 1
    7233    10370    10372 1
    7234    12287    12289 1
    7235     6374     6376 1
    7236     5375     5377 1
    7237     8804     8806 1
    7238     1605     1606 1
    7239     2869     2870 1
    7240     3084     3085 1
    7241     6536     6538 1
    7242     4964     4965 1
    7243     2374     2375 1
    7244     3422     3427 1
    7245     8330     8331 1
    7246      367      368 1
    7247     3445     3446 1
    7248       45       46 1
    7249     8504     8505 1
    7250     3158     3159 1
    7251     3308     3307 1
    7252     8111     8113 1
    7253     9299     9300 1
    7254     1108     1107 1
    7255     8099     8101 1
    7256     3314     3319 1
    7257     7274     7275 1
    7258     6734     6735 1
    7259     5573     5574 1
    7260     7436     7437 1
    7261    10730    10731 1
    7262     2213     2214 1
    7263      921      922 1
    7264      385      386 1
    7265     3111     3112 1
    7266      984      985 1
    7267     3097     3098 1
    7268     3689     3690 1
    7269     1968     1969 1
    7270     1884     1885 1
    7271     5243     5245 1
    7272     3539     3540 1
    7273      608      609 1
    7274     2744     2745 1
    7275     6419     6421 1
    7276     8429     8431 1
    7277     5411     5413 1
    7278    10334    10335 1
    7279     2124     2125 1
    7280     3506     3507 1
    7281     3943     3944 1
    7282     2435     2436 1
    7283     4518     4519 1
    7284      786      787 1
    7285      774      775 1
    7286     1704     1705 1
    7287     1219     1220 1
    7288     1271     1272 1
    7289     5909     5910 1
    7290     1332     1334 1
    7291     9917     9919 1
    7292     2812     2813 1
    7293     1381     1382 1
    7294     4123     4124 1
    7295     3659     3660 1
    7296     3226     3227 1
    7297     3868     3869 1
    7298     6008     6010 1
    7299     5900     5902 1
    7300     8912     8914 1
    7301     4976     4978 1
    7302     1993     1994 1
    7303     5057     5059 1
    7304    10133    10135 1
    7305     8135     8137 1
    7306     6299     6301 1
    7307     5975     5977 1
    7308     8297     8299 1
    7309     8054     8056 1
    7310    11888    11890 1
    7311     2910     2911 1
    7312     2879     2880 1
    7313     4790     4792 1
    7314     4838     4840 1
    7315     3368     3373 1
    7316    10841    10842 1
    7317     5684     5685 1
    7318     5441     5442 1
    7319     7547     7548 1
    7320     9464     9465 1
    7321     6656     6657 1
    7322     8357     8358 1
    7323     6440     6441 1
    7324     5846     5847 1
    7325    12191    12192 1
    7326     5621     5622 1
    7327     3910     3911 1
    7328     3300     3301 1
    7329     1329     1328 1
    7330     7202     7204 1
    7331     7283     7285 1
    7332     7040     7042 1
    7333     9119     9121 1
    7334     9281     9283 1
    7335     4517     4518 1
    7336     4049     4050 1
    7337     2363     2364 1
    7338     3186     3187 1
    7339    11882    11884 1
    7340      704      706 1
    7341     3765     3766 1
    7342     3326     3327 1
    7343     9545     9546 1
    7344       60       65 1
    7345      306      307 1
    7346     3368     3367 1
    7347     4442     4427 1
    7348     3116     3117 1
    7349     3325     3326 1
    7350     2290     2289 1
    7351     2134     2135 1
    7352     2281     2282 1
    7353     5822     5824 1
    7354     1023     1022 1
    7355     9254     9256 1
    7356     1587     1586 1
    7357     9416     9417 1
    7358    11063    11064 1
    7359    10901    10902 1
    7360     9146     9147 1
    7361    11333    11334 1
    7362    12329    12330 1
    7363    11495    11496 1
    7364     9254     9255 1
    7365     7337     7338 1
    7366     4309     4294 1
    7367     6554     6556 1
    7368    10307    10309 1
    7369     8795     8797 1
    7370      752      753 1
    7371     3475     3476 1
    7372     7370     7371 1
    7373      304      305 1
    7374     4353     4354 1
    7375     3298     3299 1
    7376     3519     3520 1
    7377    11204    11205 1
    7378     1173     1174 1
    7379    12242    12244 1
    7380     1628     1630 1
    7381     3396     3375 1
    7382    11750    11751 1
    7383     2743     2744 1
    7384     2952     2953 1
    7385     2442     2443 1
    7386     3818     3819 1
    7387     5660     5661 1
    7388     9575     9577 1
    7389      764      765 1
    7390     8624     8626 1
    7391     3397     3398 1
    7392     4820     4821 1
    7393      175      176 1
    7394     3065     3066 1
    7395     2414     2415 1
    7396     2411     2412 1
    7397     2755     2756 1
    7398     2365     2366 1
    7399      676      677 1
    7400     3638     3643 1
    7401     2543     2544 1
    7402     1542     1543 1
    7403     2630     2631 1
    7404     9947     9949 1
    7405      128      127 1
    7406     3959     3960 1
    7407     2267     2268 1
    7408     7691     7692 1
    7409    10340    10341 1
    7410     6587     6588 1
    7411     1867     1868 1
    7412    10097    10098 1
    7413     4673     4675 1
    7414     7856     7857 1
    7415     6344     6345 1
    7416     5264     5265 1
    7417     8423     8424 1
    7418    12257    12258 1
    7419     3586     3588 1
    7420     4594     4595 1
    7421     5408     5410 1
    7422     2332     2318 1
    7423     8276     8278 1
    7424     1043     1044 1
    7425    12110    12112 1
    7426     2553     2556 1
    7427     7067     7069 1
    7428     5366     5368 1
    7429     6365     6367 1
    7430     4130     4131 1
    7431     1358     1361 1
    7432     1989     1990 1
    7433     2139     2140 1
    7434     1655     1656 1
    7435     3225     3226 1
    7436    11618    11619 1
    7437     1092     1093 1
    7438     6860     6862 1
    7439      924      929 1
    7440     1699     1700 1
    7441     1272     1273 1
    7442     2348     2349 1
    7443     4955     4957 1
    7444     8657     8659 1
    7445     3958     3960 1
    7446      976      977 1
    7447     4563     4564 1
    7448     3369     3370 1
    7449     4266     4267 1
    7450     1180     1181 1
    7451     1186     1187 1
    7452      971      972 1
    7453      344      345 1
    7454      998      999 1
    7455     3065     3064 1
    7456     4967     4968 1
    7457      283      284 1
    7458     5486     5487 1
    7459      338      337 1
    7460     1775     1776 1
    7461     7217     7219 1
    7462     3875     3876 1
    7463     3288     3267 1
    7464     7298     7300 1
    7465    11132    11134 1
    7466     2506     2507 1
    7467     7379     7381 1
    7468    11213    11215 1
    7469     2078     2079 1
    7470     8999     9000 1
    7471     6659     6660 1
    7472     8981     8982 1
    7473     5741     5742 1
    7474     6821     6822 1
    7475     8819     8820 1
    7476     4493     4494 1
    7477     7145     7146 1
    7478     2729     2730 1
    7479    10817    10818 1
    7480     7064     7065 1
    7481     3558     3559 1
    7482     3175     3176 1
    7483     2510     2511 1
    7484      166      163 1
    7485     8666     8668 1
    7486     3066     3067 1
    7487     2412     2413 1
    7488     7157     7158 1
    7489    10829    10830 1
    7490     5834     5835 1
    7491     8831     8832 1
    7492     6914     6915 1
    7493     5753     5754 1
    7494     8993     8994 1
    7495     1964     1965 1
    7496     2776     2777 1
    7497     6995     6996 1
    7498     4778     4779 1
    7499     2610     2611 1
    7500     6815     6816 1
    7501     1513     1516 1
    7502     3357     3356 1
    7503      700      701 1
    7504     3767     3768 1
    7505      825      827 1
    7506     2099     2100 1
    7507    11738    11740 1
    7508      586      587 1
    7509     1162     1163 1
    7510     2201     2202 1
    7511     5354     5355 1
    7512     5927     5929 1
    7513    11678    11680 1
    7514     7925     7927 1
    7515    11516    11518 1
    7516     7763     7765 1
    7517     9761     9763 1
    7518     7682     7684 1
    7519     1801     1802 1
    7520     1574     1575 1
    7521    11786    11787 1
    7522     9743     9745 1
    7523    11984    11986 1
    7524    11822    11824 1
    7525     7988     7990 1
    7526    11741    11743 1
    7527     6152     6154 1
    7528     9905     9907 1
    7529      138      139 1
    7530     4449     4450 1
    7531     4218     4219 1
    7532    12260    12262 1
    7533     6560     6561 1
    7534     9365     9367 1
    7535     1452     1453 1
    7536     2846     2845 1
    7537     2545     2546 1
    7538     7466     7468 1
    7539     2263     2264 1
    7540      977      978 1
    7541     4259     4260 1
    7542       28       27 1
    7543     3897     3896 1
    7544     9683     9684 1
    7545     1008     1010 1
    7546     7814     7815 1
    7547     7490     7491 1
    7548     7220     7221 1
    7549     2304     2303 1
    7550    11216    11217 1
    7551    11405    11406 1
    7552     9650     9651 1
    7553     9488     9489 1
    7554    11135    11136 1
    7555     7301     7302 1
    7556     1853     1854 1
    7557     9566     9567 1
    7558    11645    11646 1
    7559     5651     5652 1
    7560     5489     5490 1
    7561     7649     7650 1
    7562     8729     8730 1
    7563    10646    10647 1
    7564      916      917 1
    7565     2163     2164 1
    7566      642      643 1
    7567     1720     1721 1
    7568      854      855 1
    7569    11567    11569 1
    7570     3262     3264 1
    7571     3201     3204 1
    7572     2335     2336 1
    7573    10820    10822 1
    7574     4280     4281 1
    7575     4514     4515 1
    7576     4427     4428 1
    7577     4422     4423 1
    7578      757      760 1
    7579     9971     9972 1
    7580     1580     1581 1
    7581     2789     2790 1
    7582     2577     2578 1
    7583     1232     1233 1
    7584      799      800 1
    7585     2145     2146 1
    7586     3045     3050 1
    7587     3693     3698 1
    7588     3274     3273 1
    7589     5777     5779 1
    7590    10772    10774 1
    7591    11150    11152 1
    7592     7316     7318 1
    7593     8855     8857 1
    7594     6569     6571 1
    7595     8693     8695 1
    7596    10610    10612 1
    7597     2083     2082 1
    7598    11312    11314 1
    7599     4201     4202 1
    7600     2891     2893 1
    7601     4409     4408 1
    7602      978      983 1
    7603     3320     3321 1
    7604     2200     2201 1
    7605     1768     1769 1
    7606     4676     4677 1
    7607     1331     1332 1
    7608     1877     1878 1
    7609    11669    11670 1
    7610    10385    10386 1
    7611    12302    12303 1
    7612     6875     6876 1
    7613     9158     9159 1
    7614     3381     3382 1
    7615     9590     9591 1
    7616    11075    11076 1
    7617     7673     7674 1
    7618    10913    10914 1
    7619     4288     4274 1
    7620     2315     2316 1
    7621     4814     4816 1
    7622     3814     3815 1
    7623     5873     5874 1
    7624    10706    10707 1
    7625    10949    10950 1
    7626    11111    11112 1
    7627     8870     8871 1
    7628     9032     9033 1
    7629    10868    10869 1
    7630     7115     7116 1
    7631     3774     3753 1
    7632    10067    10068 1
    7633     7904     7906 1
    7634     2596     2597 1
    7635     5906     5908 1
    7636    11981    11983 1
    7637     9983     9985 1
    7638     6149     6151 1
    7639     3410     3411 1
    7640    11576    11578 1
    7641     1209     1210 1
    7642    11819    11821 1
    7643     3335     3336 1
    7644     1200     1201 1
    7645     1789     1790 1
    7646     3545     3546 1
    7647     2023     2022 1
    7648     1048     1047 1
    7649    11612    11613 1
    7650     1836     1837 1
    7651    11276    11277 1
    7652     2798     2799 1
    7653     2451     2452 1
    7654     7889     7891 1
    7655     3225     3224 1
    7656     6728     6730 1
    7657     1874     1875 1
    7658     2171     2172 1
    7659     8471     8472 1
    7660     5636     5637 1
    7661     6797     6798 1
    7662     5555     5556 1
    7663     6554     6555 1
    7664     6959     6960 1
    7665    12062    12063 1
    7666     8228     8229 1
    7667     8552     8553 1
    7668     3019     3020 1
    7669     3567     3568 1
    7670     7286     7288 1
    7671     5585     5587 1
    7672     6746     6748 1
    7673    10742    10744 1
    7674     7448     7450 1
    7675     3154     3156 1
    7676     3990     3991 1
    7677     5681     5683 1
    7678    10838    10840 1
    7679     6785     6787 1
    7680     9896     9897 1
    7681     9857     9859 1
    7682    11774    11776 1
    7683     6023     6025 1
    7684     5861     5863 1
    7685     9695     9697 1
    7686     5699     5701 1
    7687    10856    10858 1
    7688    11936    11938 1
    7689     8102     8104 1
    7690     3424     3426 1
    7691      642      641 1
    7692     4488     4489 1
    7693     2528     2529 1
    7694     2428     2426 1
    7695     2961     2962 1
    7696     4550     4551 1
    7697     4553     4554 1
    7698     4085     4086 1
    7699     3062     3063 1
    7700     2853     2854 1
    7701     3716     3717 1
    7702     2408     2409 1
    7703     3498     3499 1
    7704     2635     2636 1
    7705     1324     1325 1
    7706     4013     4014 1
    7707      717      719 1
    7708     4611     4597 1
    7709     2392     2394 1
    7710     4118     4119 1
    7711     1602     1604 1
    7712     1218     1219 1
    7713     5096     5097 1
    7714    11309    11311 1
    7715     2511     2512 1
    7716     7181     7182 1
    7717     6911     6912 1
    7718     9098     9099 1
    7719     2467     2468 1
    7720     7073     7074 1
    7721     8828     8829 1
    7722      228      229 1
    7723    11177    11178 1
    7724     8936     8937 1
    7725     5750     5751 1
    7726     2628     2629 1
    7727     4832     4833 1
    7728     2699     2700 1
    7729     2154     2155 1
    7730     3505     3506 1
    7731    11945    11947 1
    7732     2523     2524 1
    7733     1054     1055 1
    7734      400      401 1
    7735      933      935 1
    7736      911      912 1
    7737      257      258 1
    7738     1565     1566 1
    7739     1120     1121 1
    7740     1111     1112 1
    7741     5600     5602 1
    7742     7517     7519 1
    7743     6599     6601 1
    7744     8516     8518 1
    7745    10433    10435 1
    7746     9596     9598 1
    7747     6761     6763 1
    7748     4143     4144 1
    7749     3593     3595 1
    7750     4338     4339 1
    7751      532      531 1
    7752     1604     1605 1
    7753     1395     1396 1
    7754    12137    12139 1
    7755      989      990 1
    7756     2006     2007 1
    7757     7142     7143 1
    7758      626      627 1
    7759     6827     6828 1
    7760      137      138 1
    7761     1608     1609 1
    7762      730      731 1
    7763     1633     1634 1
    7764     5894     5896 1
    7765    11969    11971 1
    7766    11807    11809 1
    7767     2000     2001 1
    7768    11726    11728 1
    7769     9890     9892 1
    7770     7892     7894 1
    7771     6137     6139 1
    7772     9728     9730 1
    7773     7973     7975 1
    7774     4057     4058 1
    7775     2970     2971 1
    7776     2982     2983 1
    7777     7745     7747 1
    7778    12158    12159 1
    7779    12074    12075 1
    7780    10076    10077 1
    7781     6242     6243 1
    7782     8240     8241 1
    7783     6404     6405 1
    7784     6566     6568 1
    7785    10319    10320 1
    7786     8483     8484 1
    7787    12155    12156 1
    7788     5243     5244 1
    7789     1494     1496 1
    7790     2605     2606 1
    7791     6692     6693 1
    7792     8447     8448 1
    7793     6881     6882 1
    7794    10526    10527 1
    7795     8609     8610 1
    7796     8960     8961 1
    7797     5720     5721 1
    7798     3556     3557 1
    7799     4239     4240 1
    7800     6323     6325 1
    7801      954      955 1
    7802     9167     9169 1
    7803     3135     3136 1
    7804     3543     3544 1
    7805     2944     2945 1
    7806      240      239 1
    7807     4668     4654 1
    7808     2059     2060 1
    7809     1912     1913 1
    7810      214      215 1
    7811      635      636 1
    7812     5090     5092 1
    7813    11651    11653 1
    7814     9005     9007 1
    7815    11840    11842 1
    7816    12002    12004 1
    7817     7088     7090 1
    7818     9572     9574 1
    7819     7655     7657 1
    7820     7250     7252 1
    7821     8006     8008 1
    7822     1665     1666 1
    7823     2068     2053 1
    7824     4168     4169 1
    7825     4592     4578 1
    7826     1822     1823 1
    7827     2257     2258 1
    7828     3894     3895 1
    7829     3685     3686 1
    7830     1550     1548 1
    7831     9632     9633 1
    7832     1079     1080 1
    7833      419      420 1
    7834     1073     1074 1
    7835     1511     1510 1
    7836      931      932 1
    7837     4447     4448 1
    7838     1178     1179 1
    7839     4300     4301 1
    7840     2361     2362 1
    7841     9986     9988 1
    7842     3855     3860 1
    7843     4706     4707 1
    7844     7103     7105 1
    7845     2153     2154 1
    7846     2312     2313 1
    7847     1563     1564 1
    7848     4339     4340 1
    7849     1916     1917 1
    7850      597      598 1
    7851     1627     1632 1
    7852     3311     3312 1
    7853     6425     6427 1
    7854     5843     5844 1
    7855     9677     9678 1
    7856     6167     6168 1
    7857     8084     8085 1
    7858     6842     6843 1
    7859    11324    11325 1
    7860      987      988 1
    7861    10838    10839 1
    7862     2259     2260 1
    7863    11756    11757 1
    7864     3450     3451 1
    7865     1717     1718 1
    7866      584      585 1
    7867      154      153 1
    7868     1682     1683 1
    7869     2696     2697 1
    7870     2067     2068 1
    7871     3640     3642 1
    7872     5825     5827 1
    7873      360      361 1
    7874     1761     1762 1
    7875     2858     2860 1
    7876     5258     5260 1
    7877    11633    11634 1
    7878     4477     4478 1
    7879     1344     1345 1
    7880     4703     4704 1
    7881     4919     4921 1
    7882     3731     3732 1
    7883     1062     1064 1
    7884     3734     3735 1
    7885     9878     9880 1
    7886      374      375 1
    7887      795      796 1
    7888     2560     2563 1
    7889     9719     9721 1
    7890     5039     5040 1
    7891     1697     1696 1
    7892     1894     1895 1
    7893     3370     3373 1
    7894     9377     9379 1
    7895    11861    11863 1
    7896     7784     7786 1
    7897     7541     7543 1
    7898     9782     9784 1
    7899    11699    11701 1
    7900     5948     5950 1
    7901     9458     9460 1
    7902     7622     7624 1
    7903     7865     7867 1
    7904     1777     1778 1
    7905     3153     3158 1
    7906     2829     2830 1
    7907     8414     8416 1
    7908    10169    10171 1
    7909     3948     3949 1
    7910     2870     2871 1
    7911     2440     2441 1
    7912     2649     2650 1
    7913     3303     3304 1
    7914     7076     7077 1
    7915    11090    11092 1
    7916     9335     9337 1
    7917     9065     9067 1
    7918     9227     9229 1
    7919     3462     3463 1
    7920    10982    10984 1
    7921    11252    11254 1
    7922     5897     5898 1
    7923      913      914 1
    7924     3113     3114 1
    7925     2235     2236 1
    7926      941      942 1
    7927     1794     1795 1
    7928     2319     2320 1
    7929     5969     5970 1
    7930     3440     3441 1
    7931     9320     9322 1
    7932    11405    11407 1
    7933     8390     8391 1
    7934    10388    10389 1
    7935     5393     5394 1
    7936     6635     6636 1
    7937     5312     5313 1
    7938    10469    10470 1
    7939    12224    12225 1
    7940     1386     1388 1
    7941    10226    10227 1
    7942     5474     5475 1
    7943     3242     3243 1
    7944     1105     1106 1
    7945      884      885 1
    7946      451      452 1
    7947      672      673 1
    7948     6716     6718 1
    7949      881      882 1
    7950     1152     1153 1
    7951     9236     9238 1
    7952     9074     9076 1
    7953     9155     9157 1
    7954    11072    11074 1
    7955    10910    10912 1
    7956    10991    10993 1
    7957     3388     3389 1
    7958     9278     9279 1
    7959     1816     1817 1
    7960    11180    11182 1
    7961     2850     2851 1
    7962     3059     3060 1
    7963     2359     2360 1
    7964     1106     1107 1
    7965      452      453 1
    7966     2775     2780 1
    7967     8498     8499 1
    7968     2524     2525 1
    7969     4041     4042 1
    7970     4898     4899 1
    7971     1935     1920 1
    7972    10925    10926 1
    7973     7769     7771 1
    7974     3150     3151 1
    7975    11582    11583 1
    7976    10997    10998 1
    7977     7163     7164 1
    7978     5003     5004 1
    7979    11159    11160 1
    7980     8918     8919 1
    7981     5165     5166 1
    7982    12077    12078 1
    7983     9080     9081 1
    7984     9998     9999 1
    7985     1417     1418 1
    7986     2048     2049 1
    7987    10826    10828 1
    7988     7574     7575 1
    7989     2503     2504 1
    7990     5615     5616 1
    7991     8450     8451 1
    7992    11042    11043 1
    7993     6695     6696 1
    7994     9125     9126 1
    7995      102      103 1
    7996     8531     8532 1
    7997    10448    10449 1
    7998     7046     7047 1
    7999     7289     7290 1
    8000     1845     1846 1
    8001     1283     1284 1
    8002     2344     2347 1
    8003      498      499 1
    8004      220      221 1
    8005      872      873 1
    8006     5324     5326 1
    8007     9305     9307 1
    8008     1461     1462 1
    8009     1933     1919 1
    8010      332      335 1
    8011      136      137 1
    8012     1025     1026 1
    8013    10814    10815 1
    8014     4895     4896 1
    8015     4871     4872 1
    8016     5498     5500 1
    8017        7       12 1
    8018     3184     3185 1
    8019     3629     3630 1
    8020     6629     6631 1
    8021     1882     1883 1
    8022      566      567 1
    8023      351      352 1
    8024     1638     1639 1
    8025     8567     8569 1
    8026     7811     7813 1
    8027    10484    10486 1
    8028     7487     7489 1
    8029     5327     5329 1
    8030     6488     6490 1
    8031     2640     2641 1
    8032     6917     6918 1
    8033     8996     8997 1
    8034     8834     8835 1
    8035     7187     7188 1
    8036     5756     5757 1
    8037    11183    11184 1
    8038    11021    11022 1
    8039     8942     8943 1
    8040      930      931 1
    8041     9104     9105 1
    8042     8330     8332 1
    8043     2770     2772 1
    8044     3937     3938 1
    8045     5537     5538 1
    8046     8777     8778 1
    8047    10694    10695 1
    8048     7940     7941 1
    8049     7778     7779 1
    8050     9299     9301 1
    8051     8546     8547 1
    8052     3262     3265 1
    8053     3562     3563 1
    8054     3574     3575 1
    8055     2914     2915 1
    8056     3830     3832 1
    8057       84       85 1
    8058     2926     2927 1
    8059      449      447 1
    8060     4829     4830 1
    8061      950      951 1
    8062     8519     8521 1
    8063     5603     5605 1
    8064    10436    10438 1
    8065     6602     6604 1
    8066     9221     9223 1
    8067     6764     6766 1
    8068    10976    10978 1
    8069     9059     9061 1
    8070     3074     3075 1
    8071     4721     4723 1
    8072     4195     4180 1
    8073     7835     7837 1
    8074     7511     7513 1
    8075    10634    10636 1
    8076     8555     8557 1
    8077     6962     6964 1
    8078     5639     5641 1
    8079     1373     1374 1
    8080     6800     6802 1
    8081    12203    12204 1
    8082     4712     4713 1
    8083     1637     1638 1
    8084     4606     4607 1
    8085     1175     1176 1
    8086      828      827 1
    8087     4238     4239 1
    8088     7061     7063 1
    8089     5909     5911 1
    8090     8492     8493 1
    8091     1764     1765 1
    8092     1568     1570 1
    8093    11546    11548 1
    8094     4414     4415 1
    8095     8957     8958 1
    8096      954      956 1
    8097     5006     5007 1
    8098     6545     6546 1
    8099     5546     5547 1
    8100    10541    10542 1
    8101     8624     8625 1
    8102     4165     4164 1
    8103     8786     8787 1
    8104    10001    10002 1
    8105    12080    12081 1
    8106     6707     6708 1
    8107     2527     2526 1
    8108     3974     3975 1
    8109     2133     2132 1
    8110     8735     8736 1
    8111    11840    11841 1
    8112     3255     3258 1
    8113     2456     2457 1
    8114     3041     3042 1
    8115     2614     2616 1
    8116     2268     2269 1
    8117      183      184 1
    8118    12155    12157 1
    8119     2496     2497 1
    8120     9626     9628 1
    8121      767      762 1
    8122     4133     4134 1
    8123      583      584 1
    8124     1065     1066 1
    8125    10334    10336 1
    8126      440      443 1
    8127     2397     2402 1
    8128     4931     4933 1
    8129     2047     2033 1
    8130     1819     1805 1
    8131     3310     3312 1
    8132    11909    11911 1
    8133      416      417 1
    8134     1715     1716 1
    8135     7370     7372 1
    8136    11753    11755 1
    8137      939      940 1
    8138    11939    11940 1
    8139     4059     4060 1
    8140     4910     4912 1
    8141     4184     4185 1
    8142      987      989 1
    8143     1930     1931 1
    8144     6890     6891 1
    8145    10805    10806 1
    8146    10400    10401 1
    8147     4925     4926 1
    8148     5162     5163 1
    8149     8402     8403 1
    8150    12236    12237 1
    8151    12317    12318 1
    8152     8726     8727 1
    8153    10481    10482 1
    8154     6713     6715 1
    8155     7376     7378 1
    8156     3690     3691 1
    8157     9674     9675 1
    8158     9410     9411 1
    8159     2342     2347 1
    8160     8843     8844 1
    8161    10760    10761 1
    8162     9248     9249 1
    8163     1515     1516 1
    8164    10598    10599 1
    8165     9845     9847 1
    8166    11327    11328 1
    8167    11489    11490 1
    8168      435      436 1
    8169     3942     3943 1
    8170     3521     3522 1
    8171     4754     4755 1
    8172     7310     7312 1
    8173     7229     7231 1
    8174    11387    11389 1
    8175    11225    11227 1
    8176     7715     7717 1
    8177    11444    11445 1
    8178     9203     9204 1
    8179     3401     3402 1
    8180    10364    10365 1
    8181     5369     5370 1
    8182     5207     5208 1
    8183      343      344 1
    8184     2541     2542 1
    8185    12281    12282 1
    8186     3195     3196 1
    8187       55       58 1
    8188      265      266 1
    8189     4907     4908 1
    8190     1473     1475 1
    8191     2232     2233 1
    8192     4700     4702 1
    8193     4355     4356 1
    8194     1318     1317 1
    8195     3595     3596 1
    8196     3376     3377 1
    8197     9467     9468 1
    8198     4253     4254 1
    8199     4745     4747 1
    8200     4069     4070 1
    8201     8660     8661 1
    8202    10415    10416 1
    8203     5420     5421 1
    8204    12332    12333 1
    8205     9497     9498 1
    8206    11414    11415 1
    8207     9659     9660 1
    8208    10577    10578 1
    8209     3690     3687 1
    8210     7418     7419 1
    8211     9959     9960 1
    8212    10337    10339 1
    8213    10175    10177 1
    8214    11336    11338 1
    8215     9419     9421 1
    8216     8420     8422 1
    8217     6341     6343 1
    8218     4428     4429 1
    8219     2429     2430 1
    8220     4584     4585 1
    8221     2874     2875 1
    8222      316      317 1
    8223     2796     2795 1
    8224     3465     3466 1
    8225     3606     3607 1
    8226     2344     2346 1
    8227      170      171 1
    8228     9806     9807 1
    8229     4088     4089 1
    8230     4547     4548 1
    8231     4268     4269 1
    8232     4181     4182 1
    8233      888      889 1
    8234     1097     1098 1
    8235     4189     4190 1
    8236     1557     1558 1
    8237     1345     1346 1
    8238     4383     4369 1
    8239    11249    11250 1
    8240     9926     9927 1
    8241     9605     9606 1
    8242     3971     3972 1
    8243      446      447 1
    8244     1841     1842 1
    8245     6737     6738 1
    8246    10070    10071 1
    8247     5237     5238 1
    8248     8477     8478 1
    8249     6236     6237 1
    8250     8234     8235 1
    8251    12068    12069 1
    8252     6398     6399 1
    8253     6479     6480 1
    8254    12149    12150 1
    8255    10313    10314 1
    8256     6482     6483 1
    8257     1087     1088 1
    8258       69       70 1
    8259    12122    12124 1
    8260     2857     2858 1
    8261      723      724 1
    8262     4361     4362 1
    8263     2448     2449 1
    8264     2144     2129 1
    8265      453      454 1
    8266     1671     1672 1
    8267      366      367 1
    8268     5714     5715 1
    8269      908      909 1
    8270      254      255 1
    8271      481      482 1
    8272     9407     9408 1
    8273     1562     1563 1
    8274     8036     8037 1
    8275     7787     7789 1
    8276     7544     7546 1
    8277    11702    11704 1
    8278     7868     7870 1
    8279     5951     5953 1
    8280     9461     9463 1
    8281     1158     1159 1
    8282     9380     9382 1
    8283     7625     7627 1
    8284     6032     6034 1
    8285     3637     3638 1
    8286     1398     1399 1
    8287      317      318 1
    8288    11786    11788 1
    8289      472      471 1
    8290     5828     5829 1
    8291      580      581 1
    8292     6560     6562 1
    8293     1678     1679 1
    8294     4429     4430 1
    8295     4135     4136 1
    8296     3394     3393 1
    8297     4666     4667 1
    8298     3797     3798 1
    8299     2272     2273 1
    8300     4934     4936 1
    8301      278      280 1
    8302      787      788 1
    8303     1641     1642 1
    8304      996      997 1
    8305     1922     1923 1
    8306     1972     1973 1
    8307     2221     2222 1
    8308     4571     4572 1
    8309     2767     2768 1
    8310    11513    11514 1
    8311     9887     9888 1
    8312     7970     7971 1
    8313     8132     8133 1
    8314     5135     5136 1
    8315     6215     6216 1
    8316     3178     3179 1
    8317     3166     3167 1
    8318     9968     9969 1
    8319     4120     4121 1
    8320     6134     6135 1
    8321     2277     2262 1
    8322     9257     9258 1
    8323     1358     1360 1
    8324     2823     2826 1
    8325     9017     9018 1
    8326     1910     1911 1
    8327     3120     3121 1
    8328     2856     2835 1
    8329     2466     2467 1
    8330     5567     5568 1
    8331      499      500 1
    8332     6548     6549 1
    8333    11948    11949 1
    8334     7445     7447 1
    8335    12041    12042 1
    8336     4074     4075 1
    8337     5432     5433 1
    8338     8510     8511 1
    8339     3982     3983 1
    8340     3753     3754 1
    8341      150      151 1
    8342     1153     1154 1
    8343      275      276 1
    8344     1368     1369 1
    8345    11576    11577 1
    8346      544      545 1
    8347     1416     1417 1
    8348     1796     1797 1
    8349     1943     1944 1
    8350      158      159 1
    8351      467      468 1
    8352     1041     1042 1
    8353    10013    10015 1
    8354     6119     6121 1
    8355     9560     9561 1
    8356     8474     8476 1
    8357     5234     5236 1
    8358     6233     6235 1
    8359    12065    12067 1
    8360    10310    10312 1
    8361     6395     6397 1
    8362     5372     5373 1
    8363    12146    12148 1
    8364     3961     3962 1
    8365     5963     5965 1
    8366     1640     1641 1
    8367     2748     2727 1
    8368     7157     7159 1
    8369    10829    10831 1
    8370     8993     8995 1
    8371     8831     8833 1
    8372     6914     6916 1
    8373     5753     5755 1
    8374     2776     2778 1
    8375     6995     6997 1
    8376     7076     7078 1
    8377     5834     5836 1
    8378     2981     2982 1
    8379     2969     2970 1
    8380     4628     4629 1
    8381     1454     1455 1
    8382     1663     1664 1
    8383     1850     1851 1
    8384     1992     1993 1
    8385     3630     3631 1
    8386     4029     4030 1
    8387     4829     4831 1
    8388      915      916 1
    8389     6101     6102 1
    8390     8138     8139 1
    8391    10136    10137 1
    8392    11891    11892 1
    8393     6302     6303 1
    8394     4979     4980 1
    8395     5060     5061 1
    8396     8057     8058 1
    8397     8300     8301 1
    8398     5978     5979 1
    8399     6059     6060 1
    8400     1308     1309 1
    8401    10067    10069 1
    8402     3807     3808 1
    8403     1870     1871 1
    8404     2167     2168 1
    8405     3769     3770 1
    8406     4610     4611 1
    8407     2682     2683 1
    8408     8603     8605 1
    8409     2254     2253 1
    8410     2034     2035 1
    8411     1887     1888 1
    8412     1499     1500 1
    8413       81       82 1
    8414     3138     3139 1
    8415     2484     2485 1
    8416      517      518 1
    8417     1159     1160 1
    8418     3312     3313 1
    8419     1752     1753 1
    8420     8900     8901 1
    8421     5822     5823 1
    8422      375      376 1
    8423      926      929 1
    8424     3908     3913 1
    8425     4117     4103 1
    8426     6725     6726 1
    8427     4206     4207 1
    8428      571      572 1
    8429      780      781 1
    8430      396      397 1
    8431     7628     7629 1
    8432     3713     3712 1
    8433    11663    11665 1
    8434     9152     9154 1
    8435    11069    11071 1
    8436     7667     7669 1
    8437     9584     9586 1
    8438    10907    10909 1
    8439     6782     6784 1
    8440     4285     4286 1
    8441     4432     4433 1
    8442     9575     9576 1
    8443     2358     2359 1
    8444    11645    11647 1
    8445     5489     5491 1
    8446     9566     9568 1
    8447     5651     5653 1
    8448     2236     2237 1
    8449     7649     7651 1
    8450     8729     8731 1
    8451    10646    10648 1
    8452    10676    10677 1
    8453     9563     9565 1
    8454     6551     6553 1
    8455     4462     4463 1
    8456    12029    12030 1
    8457     8789     8790 1
    8458    10625    10626 1
    8459     6953     6954 1
    8460     8627     8628 1
    8461     5549     5550 1
    8462     6278     6279 1
    8463     6791     6792 1
    8464    10112    10113 1
    8465    10193    10194 1
    8466     9131     9132 1
    8467     7334     7336 1
    8468    11666    11667 1
    8469     9587     9588 1
    8470     5672     5673 1
    8471    10667    10668 1
    8472     7670     7671 1
    8473     5510     5511 1
    8474     8750     8751 1
    8475     7850     7852 1
    8476     6095     6097 1
    8477    11927    11929 1
    8478     6014     6016 1
    8479    11765    11767 1
    8480     9686     9688 1
    8481     2756     2757 1
    8482    10091    10093 1
    8483     9848     9850 1
    8484     9929     9931 1
    8485     2759     2760 1
    8486     2544     2545 1
    8487     3963     3968 1
    8488     3338     3339 1
    8489     2684     2685 1
    8490     3477     3478 1
    8491      663      665 1
    8492     3337     3338 1
    8493     2683     2684 1
    8494     4205     4206 1
    8495     2094     2095 1
    8496      602      605 1
    8497      167      168 1
    8498     2580     2581 1
    8499     4405     4406 1
    8500      456      457 1
    8501     6863     6865 1
    8502      824      825 1
    8503     2999     3000 1
    8504     4618     4619 1
    8505     2372     2373 1
    8506    11711    11712 1
    8507     7877     7878 1
    8508     7796     7797 1
    8509    11630    11631 1
    8510     9524     9525 1
    8511    11360    11361 1
    8512     4423     4408 1
    8513     7526     7527 1
    8514     7607     7608 1
    8515     8657     8658 1
    8516     7673     7675 1
    8517     9590     9592 1
    8518     2815     2816 1
    8519    11669    11671 1
    8520    11075    11077 1
    8521     9158     9160 1
    8522    10913    10915 1
    8523      725      726 1
    8524     3245     3246 1
    8525      463      464 1
    8526     4763     4764 1
    8527     5273     5274 1
    8528     2875     2876 1
    8529     2516     2517 1
    8530     2341     2342 1
    8531     1897     1882 1
    8532      791      792 1
    8533      866      868 1
    8534    12305    12306 1
    8535     2350     2351 1
    8536     4649     4635 1
    8537     7142     7144 1
    8538      243      244 1
    8539     2717     2718 1
    8540     2906     2905 1
    8541     1083     1084 1
    8542     5096     5098 1
    8543     1982     1983 1
    8544     2057     2058 1
    8545     3690     3688 1
    8546     4519     4520 1
    8547     4138     4139 1
    8548     5693     5694 1
    8549      840      841 1
    8550     1049     1050 1
    8551     2226     2227 1
    8552     2310     2311 1
    8553     4586     4587 1
    8554      170      172 1
    8555       12       13 1
    8556     1286     1287 1
    8557      211      212 1
    8558      359      360 1
    8559     8345     8347 1
    8560     3658     3659 1
    8561      462      463 1
    8562     5390     5391 1
    8563     8324     8325 1
    8564       83       84 1
    8565     9656     9657 1
    8566    11432    11434 1
    8567    12269    12271 1
    8568     6518     6520 1
    8569     5357     5359 1
    8570     9191     9193 1
    8571    10352    10354 1
    8572     4590     4591 1
    8573     5195     5197 1
    8574     4227     4228 1
    8575     6356     6358 1
    8576      565      566 1
    8577     2912     2913 1
    8578     2548     2549 1
    8579     1432     1433 1
    8580     4562     4563 1
    8581    10628    10630 1
    8582     4333     4334 1
    8583       32       33 1
    8584     4417     4418 1
    8585      267      268 1
    8586      264      265 1
    8587     3467     3466 1
    8588     3677     3678 1
    8589     2339     2340 1
    8590     2003     2004 1
    8591     5696     5698 1
    8592     6377     6378 1
    8593     1128     1129 1
    8594    10205    10206 1
    8595     2614     2617 1
    8596     3132     3133 1
    8597    10613    10614 1
    8598     2465     2466 1
    8599     3126     3127 1
    8600     2211     2212 1
    8601      439      444 1
    8602     1987     1988 1
    8603     1011     1010 1
    8604      412      391 1
    8605     1011     1012 1
    8606     4080     4081 1
    8607     4886     4887 1
    8608     8240     8242 1
    8609     2603     2604 1
    8610     6404     6406 1
    8611    12074    12076 1
    8612    10076    10078 1
    8613     6242     6244 1
    8614     1382     1383 1
    8615     1370     1371 1
    8616     2871     2872 1
    8617    10319    10321 1
    8618     3295     3296 1
    8619      949      950 1
    8620     9632     9634 1
    8621     6185     6187 1
    8622    11633    11635 1
    8623     2834     2829 1
    8624     2433     2434 1
    8625     1999     1998 1
    8626     3907     3906 1
    8627     2746     2745 1
    8628     1514     1516 1
    8629     2972     2973 1
    8630     2085     2071 1
    8631     2774     2779 1
    8632     4190     4191 1
    8633     1847     1848 1
    8634     3150     3148 1
    8635     2530     2531 1
    8636     4487     4488 1
    8637    11258    11259 1
    8638      714      715 1
    8639      360      362 1
    8640    10703    10705 1
    8641     2294     2280 1
    8642    10340    10342 1
    8643     5264     5266 1
    8644     6587     6589 1
    8645     9029     9030 1
    8646     8867     8868 1
    8647    10595    10596 1
    8648     5924     5925 1
    8649    11675    11676 1
    8650    11108    11109 1
    8651    10946    10947 1
    8652     5114     5115 1
    8653     9947     9948 1
    8654     8840     8841 1
    8655     5597     5598 1
    8656     6596     6597 1
    8657    10430    10431 1
    8658     8513     8514 1
    8659     6758     6759 1
    8660     9215     9216 1
    8661    10970    10971 1
    8662     9053     9054 1
    8663    12164    12165 1
    8664     7742     7744 1
    8665     2323     2324 1
    8666     3107     3108 1
    8667     5897     5899 1
    8668     1815     1816 1
    8669     1962     1963 1
    8670     1055     1056 1
    8671      401      402 1
    8672     2493     2494 1
    8673     1264     1265 1
    8674      628      607 1
    8675     1511     1512 1
    8676      192      193 1
    8677     9362     9364 1
    8678     1944     1945 1
    8679      159      160 1
    8680     4508     4509 1
    8681     2611     2612 1
    8682     4480     4465 1
    8683      674      675 1
    8684     5705     5706 1
    8685    10184    10186 1
    8686     4162     4163 1
    8687     2488     2489 1
    8688     2921     2922 1
    8689     1132     1133 1
    8690     3130     3131 1
    8691      699      700 1
    8692    10418    10419 1
    8693      722      723 1
    8694     2201     2186 1
    8695     1724     1725 1
    8696     3431     3433 1
    8697     2783     2785 1
    8698     2771     2772 1
    8699    10961    10963 1
    8700     5885     5887 1
    8701    11123    11125 1
    8702     8882     8884 1
    8703    11915    11917 1
    8704     9044     9046 1
    8705     3950     3951 1
    8706      963      964 1
    8707    10880    10882 1
    8708    10718    10720 1
    8709     4282     4283 1
    8710     7862     7863 1
    8711    12032    12033 1
    8712     1222     1201 1
    8713     2224     2225 1
    8714     1257     1258 1
    8715     2305     2306 1
    8716      277      278 1
    8717     2077     2078 1
    8718     1774     1775 1
    8719     4048     4049 1
    8720     2158     2159 1
    8721     8156     8157 1
    8722     3532     3533 1
    8723    11372    11373 1
    8724    11615    11616 1
    8725     8213     8214 1
    8726     9536     9537 1
    8727     4973     4974 1
    8728    10130    10131 1
    8729     7619     7620 1
    8730     5297     5298 1
    8731     6296     6297 1
    8732    12047    12048 1
    8733     3384     3385 1
    8734     8303     8304 1
    8735     4982     4983 1
    8736     5981     5982 1
    8737     8141     8142 1
    8738    10139    10140 1
    8739     6305     6306 1
    8740     5063     5064 1
    8741     6062     6063 1
    8742     8060     8061 1
    8743     1245     1246 1
    8744     2198     2199 1
    8745    10496    10498 1
    8746     8579     8581 1
    8747     5339     5341 1
    8748     7499     7501 1
    8749     7823     7825 1
    8750     4575     4576 1
    8751     2360     2361 1
    8752     3628     3629 1
    8753     6500     6502 1
    8754    11582    11584 1
    8755     3213     3212 1
    8756     3921     3922 1
    8757     3488     3489 1
    8758     3763     3764 1
    8759     3978     3979 1
    8760      655      660 1
    8761      358      337 1
    8762     4553     4552 1
    8763     7574     7576 1
    8764     4250     4236 1
    8765     2402     2403 1
    8766     2649     2648 1
    8767       90       92 1
    8768     3598     3599 1
    8769     6650     6651 1
    8770     2258     2243 1
    8771     2009     1995 1
    8772     3370     3372 1
    8773     1023     1024 1
    8774     8753     8754 1
    8775      707      708 1
    8776     2161     2147 1
    8777     7931     7932 1
    8778    12089    12090 1
    8779     7688     7689 1
    8780    12170    12171 1
    8781    11846    11847 1
    8782    11684    11685 1
    8783     5933     5934 1
    8784    12008    12009 1
    8785     8012     8013 1
    8786     3782     3783 1
    8787    10472    10474 1
    8788     6638     6640 1
    8789     8393     8395 1
    8790    10391    10393 1
    8791     2598     2599 1
    8792     5396     5398 1
    8793    12227    12229 1
    8794    10229    10231 1
    8795     5477     5479 1
    8796     5315     5317 1
    8797     6473     6474 1
    8798     1897     1898 1
    8799     2932     2934 1
    8800     4685     4686 1
    8801     1030     1031 1
    8802     2522     2523 1
    8803     3090     3091 1
    8804     2731     2732 1
    8805     4494     4495 1
    8806    11507    11508 1
    8807     3176     3177 1
    8808     4241     4242 1
    8809     2380     2381 1
    8810    10814    10816 1
    8811     4541     4542 1
    8812     3501     3502 1
    8813     8669     8670 1
    8814      364      365 1
    8815     9659     9661 1
    8816     1318     1319 1
    8817     4557     4558 1
    8818     4459     4445 1
    8819     7604     7606 1
    8820     9521     9523 1
    8821     4231     4217 1
    8822     9359     9361 1
    8823    10520    10522 1
    8824     6686     6688 1
    8825     8441     8443 1
    8826     9524     9526 1
    8827     7343     7344 1
    8828    11600    11602 1
    8829    11873    11874 1
    8830      116      117 1
    8831     4595     4596 1
    8832     2069     2070 1
    8833     2709     2708 1
    8834    11555    11556 1
    8835     7721     7722 1
    8836    11447    11448 1
    8837     9206     9207 1
    8838     9638     9639 1
    8839    11393    11394 1
    8840     4598     4599 1
    8841     9449     9450 1
    8842    11474    11475 1
    8843     9557     9558 1
    8844     4736     4737 1
    8845     8546     8548 1
    8846      169      170 1
    8847     8405     8407 1
    8848      703      706 1
    8849     3655     3656 1
    8850     4424     4425 1
    8851     3472     3474 1
    8852     3793     3794 1
    8853       82       83 1
    8854      917      918 1
    8855     2485     2486 1
    8856     2483     2484 1
    8857       86       87 1
    8858     1338     1339 1
    8859     1126     1127 1
    8860     1102     1103 1
    8861     7193     7195 1
    8862     7031     7033 1
    8863     5654     5656 1
    8864     9110     9112 1
    8865     8732     8734 1
    8866    10649    10651 1
    8867     5492     5494 1
    8868     9272     9274 1
    8869    11027    11029 1
    8870       28       29 1
    8871      968      969 1
    8872     1610     1611 1
    8873     5168     5169 1
    8874      956      957 1
    8875     1001     1002 1
    8876    10274    10275 1
    8877    12203    12205 1
    8878     1541     1542 1
    8879     4585     4586 1
    8880     2395     2396 1
    8881     3877     3878 1
    8882     3812     3811 1
    8883     3223     3224 1
    8884     2551     2552 1
    8885      354      355 1
    8886      563      564 1
    8887     2199     2185 1
    8888     5003     5005 1
    8889    11159    11161 1
    8890     7163     7165 1
    8891     8918     8920 1
    8892    10997    10999 1
    8893     1573     1574 1
    8894     5165     5167 1
    8895    12077    12079 1
    8896     9080     9082 1
    8897    10040    10042 1
    8898     8492     8494 1
    8899      328      329 1
    8900    10904    10905 1
    8901     9068     9069 1
    8902     9230     9231 1
    8903     9149     9150 1
    8904    11066    11067 1
    8905    10985    10986 1
    8906     1685     1680 1
    8907     1732     1733 1
    8908    12209    12210 1
    8909     5036     5037 1
    8910     3398     3399 1
    8911     3706     3707 1
    8912     8735     8737 1
    8913     3568     3569 1
    8914     1488     1487 1
    8915     4199     4200 1
    8916     2884     2887 1
    8917     1831     1832 1
    8918      647      648 1
    8919     9980     9982 1
    8920     9383     9385 1
    8921     5738     5740 1
    8922     8816     8818 1
    8923    12272    12274 1
    8924     6521     6523 1
    8925     5360     5362 1
    8926    10355    10357 1
    8927     8978     8980 1
    8928     5198     5200 1
    8929     6899     6901 1
    8930     1124     1125 1
    8931     4904     4905 1
    8932     4000     4001 1
    8933       80       81 1
    8934    10301    10302 1
    8935     3969     3970 1
    8936     8834     8836 1
    8937     8996     8998 1
    8938     7079     7081 1
    8939     5756     5758 1
    8940    11021    11023 1
    8941     7187     7189 1
    8942      958      959 1
    8943     6917     6919 1
    8944      967      968 1
    8945    11144    11146 1
    8946     2881     2880 1
    8947     3290     3292 1
    8948     1064     1065 1
    8949      852      853 1
    8950      738      739 1
    8951     7940     7942 1
    8952     5537     5539 1
    8953     8777     8779 1
    8954    10694    10696 1
    8955     7778     7780 1
    8956     5159     5160 1
    8957     3617     3618 1
    8958     2661     2664 1
    8959     2559     2564 1
    8960     6266     6268 1
    8961      579      580 1
    8962     1457     1458 1
    8963     1024     1025 1
    8964     1666     1667 1
    8965     3806     3807 1
    8966     8957     8959 1
    8967     2851     2852 1
    8968    10169    10170 1
    8969     4404     4389 1
    8970      497      492 1
    8971     5303     5304 1
    8972    12215    12216 1
    8973     8381     8382 1
    8974     8705     8706 1
    8975     5789     5790 1
    8976    10784    10785 1
    8977     2834     2835 1
    8978    10460    10461 1
    8979     1436     1437 1
    8980     5465     5466 1
    8981     4709     4711 1
    8982      752      751 1
    8983     6623     6625 1
    8984     3112     3113 1
    8985     4270     4271 1
    8986     1440     1442 1
    8987     2688     2689 1
    8988     4760     4761 1
    8989     2115     2116 1
    8990     6485     6487 1
    8991     3504     3505 1
    8992     9104     9106 1
    8993     5381     5382 1
    8994     3801     3802 1
    8995      624      625 1
    8996      406      407 1
    8997     4537     4522 1
    8998     4967     4969 1
    8999      940      941 1
    9000     4605     4606 1
    9001     2945     2947 1
    9002     9959     9961 1
    9003      807      808 1
    9004     3856     3859 1
    9005     9383     9384 1
    9006     5804     5806 1
    9007    10799    10801 1
    9008     5399     5401 1
    9009     5318     5320 1
    9010     8720     8722 1
    9011     6884     6886 1
    9012    10394    10396 1
    9013     5480     5482 1
    9014    10475    10477 1
    9015     6641     6643 1
    9016     4513     4514 1
    9017     4279     4280 1
    9018     6671     6673 1
    9019     2722     2725 1
    9020     1687     1688 1
    9021     3775     3776 1
    9022     2302     2303 1
    9023     1771     1772 1
    9024      479      480 1
    9025     9413     9415 1
    9026     7052     7053 1
    9027    11492    11494 1
    9028     3076     3077 1
    9029    12314    12315 1
    9030    10397    10398 1
    9031    10478    10479 1
    9032     5483     5484 1
    9033     6644     6645 1
    9034     5402     5403 1
    9035    12233    12234 1
    9036    10235    10236 1
    9037     8399     8400 1
    9038     5321     5322 1
    9039     5798     5800 1
    9040    10793    10795 1
    9041     8714     8716 1
    9042     6608     6610 1
    9043    10523    10525 1
    9044     7934     7935 1
    9045    10688    10689 1
    9046     8771     8772 1
    9047     6878     6880 1
    9048     5531     5532 1
    9049     2532     2533 1
    9050     3107     3109 1
    9051      111      112 1
    9052     7772     7773 1
    9053     2667     2672 1
    9054     3046     3047 1
    9055     4470     4471 1
    9056     4545     4546 1
    9057     4323     4324 1
    9058     2338     2340 1
    9059     4091     4090 1
    9060     3635     3636 1
    9061     1034     1037 1
    9062     2907     2908 1
    9063     3050     3051 1
    9064     4202     4203 1
    9065      285      286 1
    9066     2140     2141 1
    9067     1903     1904 1
    9068     1756     1757 1
    9069     1543     1544 1
    9070      444      445 1
    9071     1572     1577 1
    9072     9305     9306 1
    9073     7661     7662 1
    9074     5663     5664 1
    9075    10658    10659 1
    9076    11657    11658 1
    9077     8741     8742 1
    9078     3779     3780 1
    9079     9578     9579 1
    9080     5501     5502 1
    9081     7130     7132 1
    9082     8015     8017 1
    9083     8726     8728 1
    9084    10481    10483 1
    9085     4925     4927 1
    9086    10805    10807 1
    9087     5810     5812 1
    9088     5162     5164 1
    9089     6647     6649 1
    9090    12236    12238 1
    9091     6890     6892 1
    9092    10400    10402 1
    9093     6230     6231 1
    9094     5231     5232 1
    9095    12143    12144 1
    9096     9407     9409 1
    9097     4044     4023 1
    9098     2872     2873 1
    9099     4614     4615 1
    9100     9482     9483 1
    9101     4782     4781 1
    9102     5498     5499 1
    9103     5828     5830 1
    9104     3919     3920 1
    9105     2841     2842 1
    9106     1239     1240 1
    9107     1448     1449 1
    9108      794      795 1
    9109     1485     1486 1
    9110     3274     3275 1
    9111     3006     3007 1
    9112     7877     7879 1
    9113    11711    11713 1
    9114     9605     9607 1
    9115     9314     9315 1
    9116     4022     4023 1
    9117    11513    11515 1
    9118     4057     4056 1
    9119     1504     1505 1
    9120     1892     1893 1
    9121     9257     9259 1
    9122     5435     5436 1
    9123     6434     6435 1
    9124    12347    12348 1
    9125     8351     8352 1
    9126     8891     8892 1
    9127     2384     2385 1
    9128     4095     4096 1
    9129    10808    10809 1
    9130     4245     4246 1
    9131     3593     3594 1
    9132     2690     2691 1
    9133     9017     9019 1
    9134     2315     2300 1
    9135     5669     5670 1
    9136     3055     3056 1
    9137    10745    10746 1
    9138     5588     5589 1
    9139     2176     2177 1
    9140     4291     4292 1
    9141    10664    10665 1
    9142     8747     8748 1
    9143     1654     1633 1
    9144     4068     4067 1
    9145    10295    10296 1
    9146    11948    11950 1
    9147     6548     6550 1
    9148    12041    12043 1
    9149    12278    12280 1
    9150     1374     1375 1
    9151     4073     4074 1
    9152      287      288 1
    9153     2947     2948 1
    9154      859      860 1
    9155      205      206 1
    9156      251      252 1
    9157     4742     4743 1
    9158     4627     4628 1
    9159     4621     4622 1
    9160    11918    11919 1
    9161     2748     2749 1
    9162     8048     8050 1
    9163    11411    11412 1
    9164     3890     3891 1
    9165     3581     3582 1
    9166     2550     2549 1
    9167     8897     8898 1
    9168     5372     5374 1
    9169     5729     5730 1
    9170    11747    11749 1
    9171     1205     1206 1
    9172     1039     1040 1
    9173     3829     3830 1
    9174    10757    10758 1
    9175    11480    11481 1
    9176     7727     7728 1
    9177    11453    11454 1
    9178    11210    11211 1
    9179     9212     9213 1
    9180    11561    11562 1
    9181     4046     4047 1
    9182    11399    11400 1
    9183     9644     9645 1
    9184     9455     9456 1
    9185    11546    11547 1
    9186     3205     3206 1
    9187      814      811 1
    9188     4264     4265 1
    9189    12128    12129 1
    9190     5054     5055 1
    9191     2258     2259 1
    9192     5429     5430 1
    9193    11126    11127 1
    9194    12341    12342 1
    9195    10424    10425 1
    9196    10964    10965 1
    9197     8507     8508 1
    9198     8885     8886 1
    9199    10586    10587 1
    9200     9047     9048 1
    9201     7130     7131 1
    9202     3721     3722 1
    9203    11366    11367 1
    9204     3715     3716 1
    9205     3058     3059 1
    9206     3745     3746 1
    9207       93       94 1
    9208     4145     4146 1
    9209    12308    12309 1
    9210      166      164 1
    9211     7733     7734 1
    9212     6251     6253 1
    9213    10508    10509 1
    9214     9950     9952 1
    9215     8033     8035 1
    9216     6116     6118 1
    9217     8114     8116 1
    9218     7952     7954 1
    9219     9869     9871 1
    9220     6197     6199 1
    9221     5117     5119 1
    9222      825      826 1
    9223     4651     4636 1
    9224    11624    11625 1
    9225     7970     7972 1
    9226     8132     8134 1
    9227      890      891 1
    9228     6134     6136 1
    9229     9968     9970 1
    9230    10637    10638 1
    9231     6452     6453 1
    9232     9887     9889 1
    9233     6215     6217 1
    9234     5135     5137 1
    9235      433      436 1
    9236    10244    10246 1
    9237     2515     2513 1
    9238     3732     3733 1
    9239     9347     9348 1
    9240    11642    11643 1
    9241     2389     2390 1
    9242     4094     4095 1
    9243     2113     2114 1
    9244     7628     7630 1
    9245     9629     9631 1
    9246     8927     8929 1
    9247     9197     9199 1
    9248    11438    11440 1
    9249     5363     5365 1
    9250    12275    12277 1
    9251    10358    10360 1
    9252     6524     6526 1
    9253     5201     5203 1
    9254     6362     6364 1
    9255     3711     3712 1
    9256    11636    11637 1
    9257     9845     9846 1
    9258     3418     3420 1
    9259     6101     6103 1
    9260     8813     8814 1
    9261     7058     7059 1
    9262     8975     8976 1
    9263     6977     6978 1
    9264     5735     5736 1
    9265     6896     6897 1
    9266        1        4 1
    9267    10811    10812 1
    9268     8894     8895 1
    9269     5816     5817 1
    9270     6476     6478 1
    9271     2893     2894 1
    9272     1561     1560 1
    9273    12293    12295 1
    9274     8378     8380 1
    9275     2254     2255 1
    9276     2459     2460 1
    9277      764      767 1
    9278     2040     2041 1
    9279     1409     1410 1
    9280     1694     1695 1
    9281     1261     1262 1
    9282      862      863 1
    9283       49       50 1
    9284      680      681 1
    9285       71       72 1
    9286     3131     3132 1
    9287     4009     4010 1
    9288     3469     3470 1
    9289      634      635 1
    9290     9179     9181 1
    9291     7262     7264 1
    9292     7100     7102 1
    9293     3852     3853 1
    9294     7154     7156 1
    9295     6992     6994 1
    9296     2866     2867 1
    9297     2011     2012 1
    9298     2860     2861 1
    9299     6830     6832 1
    9300      297      298 1
    9301     2125     2110 1
    9302     3871     3872 1
    9303     3217     3218 1
    9304      506      507 1
    9305     3662     3663 1
    9306     3008     3009 1
    9307     7898     7900 1
    9308     4763     4765 1
    9309     4775     4777 1
    9310     8441     8442 1
    9311    10520    10521 1
    9312     6686     6687 1
    9313     8603     8604 1
    9314     9521     9522 1
    9315     9359     9360 1
    9316     3820     3821 1
    9317     7604     7605 1
    9318     2957     2958 1
    9319    11600    11601 1
    9320     1742     1741 1
    9321     8162     8163 1
    9322     5954     5955 1
    9323    11705    11706 1
    9324     7871     7872 1
    9325     6386     6387 1
    9326    12056    12057 1
    9327     8222     8223 1
    9328     9788     9789 1
    9329     5225     5226 1
    9330     6224     6225 1
    9331     8465     8466 1
    9332     2985     2988 1
    9333    11762    11764 1
    9334     3730     3731 1
    9335     3297     3298 1
    9336    11504    11505 1
    9337    11342    11343 1
    9338     7346     7347 1
    9339     8426     8427 1
    9340    10181    10182 1
    9341     6347     6348 1
    9342     6185     6186 1
    9343     8264     8265 1
    9344     4802     4803 1
    9345    10343    10344 1
    9346     5858     5860 1
    9347      355      356 1
    9348      564      565 1
    9349     1795     1796 1
    9350     6974     6976 1
    9351     3316     3319 1
    9352      250      229 1
    9353     2884     2886 1
    9354     3504     3483 1
    9355     2396     2401 1
    9356    10529    10530 1
    9357      157      158 1
    9358     1942     1943 1
    9359     3884     3885 1
    9360     5693     5695 1
    9361     3819     3820 1
    9362     3607     3608 1
    9363     3267     3268 1
    9364     2480     2481 1
    9365     4793     4795 1
    9366    12278    12279 1
    9367     5744     5745 1
    9368     5204     5205 1
    9369    10361    10362 1
    9370     8984     8985 1
    9371     8822     8823 1
    9372     7067     7068 1
    9373     6905     6906 1
    9374     5366     5367 1
    9375     6527     6528 1
    9376     8528     8530 1
    9377     8717     8719 1
    9378     5612     5614 1
    9379    10445    10447 1
    9380    10796    10798 1
    9381     8552     8554 1
    9382     5801     5803 1
    9383     1397     1398 1
    9384     1176     1177 1
    9385     1155     1156 1
    9386      313      314 1
    9387     1285     1286 1
    9388     1237     1238 1
    9389     9680     9681 1
    9390     4271     4272 1
    9391     9587     9589 1
    9392    11666    11668 1
    9393     5672     5674 1
    9394    10667    10669 1
    9395     7670     7672 1
    9396     2519     2520 1
    9397     5510     5512 1
    9398     8750     8752 1
    9399     9242     9244 1
    9400    11885    11886 1
    9401     7739     7741 1
    9402     4724     4725 1
    9403     4796     4797 1
    9404      242      243 1
    9405     1012     1013 1
    9406      803      804 1
    9407     3400     3401 1
    9408      667      668 1
    9409     2910     2889 1
    9410     2567     2568 1
    9411     3316     3317 1
    9412     2218     2204 1
    9413     4155     4141 1
    9414     4961     4963 1
    9415     5960     5961 1
    9416     3639     3640 1
    9417     3531     3536 1
    9418     5774     5775 1
    9419     2814     2815 1
    9420     9908     9909 1
    9421     1060     1061 1
    9422     9026     9027 1
    9423     8864     8865 1
    9424     5867     5868 1
    9425    11105    11106 1
    9426    10943    10944 1
    9427     7109     7110 1
    9428       14       15 1
    9429    10862    10863 1
    9430     3536     3537 1
    9431    10700    10701 1
    9432     7505     7506 1
    9433     8585     8586 1
    9434    10502    10503 1
    9435     7829     7830 1
    9436     5345     5346 1
    9437     6506     6507 1
    9438      384      389 1
    9439     1465     1470 1
    9440      386      387 1
    9441     1700     1701 1
    9442      649      652 1
    9443    10163    10164 1
    9444     6212     6214 1
    9445     6119     6120 1
    9446    10640    10641 1
    9447    10082    10084 1
    9448     5249     5251 1
    9449     6923     6925 1
    9450    11081    11083 1
    9451     2560     2562 1
    9452     6086     6088 1
    9453     7841     7843 1
    9454     4359     4360 1
    9455     4599     4600 1
    9456     9326     9328 1
    9457     4656     4657 1
    9458     2989     2990 1
    9459     4251     4252 1
    9460      900      902 1
    9461     8465     8467 1
    9462     3874     3873 1
    9463     1259     1260 1
    9464      748      749 1
    9465     9617     9619 1
    9466     3043     3044 1
    9467     1157     1158 1
    9468     5810     5811 1
    9469    10238    10239 1
    9470      288      289 1
    9471       47       48 1
    9472     5405     5406 1
    9473      291      292 1
    9474      381      382 1
    9475     3612     3591 1
    9476     5915     5917 1
    9477       24       25 1
    9478     1765     1766 1
    9479       48       49 1
    9480     4262     4263 1
    9481     1353     1354 1
    9482     4343     4344 1
    9483     4706     4708 1
    9484     6458     6460 1
    9485     1121     1122 1
    9486     5804     5805 1
    9487     2245     2246 1
    9488     1802     1803 1
    9489     1501     1502 1
    9490    11258    11260 1
    9491     9851     9852 1
    9492    11768    11769 1
    9493     6017     6018 1
    9494     2610     2608 1
    9495    11930    11931 1
    9496     8096     8097 1
    9497     5855     5856 1
    9498     6854     6855 1
    9499     7016     7017 1
    9500    10850    10851 1
    9501     4167     4168 1
    9502    10544    10545 1
    9503     3799     3800 1
    9504    10643    10644 1
    9505      595      598 1
    9506    12164    12166 1
    9507     4506     4505 1
    9508     3775     3774 1
    9509     2286     2287 1
    9510     2030     2015 1
    9511     1365     1367 1
    9512     4952     4953 1
    9513     1974     1975 1
    9514    11417    11419 1
    9515     8042     8044 1
    9516     6206     6208 1
    9517     6125     6127 1
    9518     7502     7504 1
    9519     8123     8125 1
    9520     2816     2817 1
    9521     7826     7828 1
    9522      961      962 1
    9523     2835     2836 1
    9524     4703     4705 1
    9525     3682     3683 1
    9526     4665     4666 1
    9527     3891     3892 1
    9528      275      274 1
    9529    10418    10420 1
    9530     7124     7126 1
    9531     9194     9195 1
    9532     4603     4604 1
    9533     3302     3303 1
    9534     2750     2751 1
    9535     1720     1719 1
    9536     9581     9582 1
    9537     4172     4173 1
    9538     2306     2307 1
    9539     2159     2160 1
    9540     4340     4341 1
    9541     3009     3010 1
    9542     4898     4900 1
    9543     2515     2516 1
    9544    10412    10414 1
    9545    11114    11116 1
    9546     8495     8497 1
    9547     7118     7120 1
    9548     8873     8875 1
    9549    10574    10576 1
    9550     5417     5419 1
    9551     2854     2855 1
    9552    12329    12331 1
    9553     3929     3930 1
    9554     7334     7335 1
    9555     9812     9813 1
    9556     7652     7653 1
    9557    11648    11649 1
    9558    12107    12108 1
    9559     6275     6276 1
    9560     9569     9570 1
    9561    12026    12027 1
    9562    10190    10191 1
    9563    10028    10029 1
    9564     8273     8274 1
    9565     5708     5710 1
    9566     8702     8704 1
    9567      863      864 1
    9568     4841     4842 1
    9569     2193     2194 1
    9570     1773     1774 1
    9571     2891     2892 1
    9572     2061     2062 1
    9573     1393     1394 1
    9574     1146     1147 1
    9575    10457    10458 1
    9576    12263    12265 1
    9577     3016     3015 1
    9578      363      364 1
    9579     6593     6595 1
    9580     7610     7611 1
    9581    12251    12252 1
    9582     1475     1476 1
    9583     4015     4016 1
    9584     1260     1261 1
    9585     4044     4045 1
    9586     1364     1365 1
    9587     5213     5214 1
    9588      738      740 1
    9589     3106     3107 1
    9590     3257     3258 1
    9591     4895     4897 1
    9592     3955     3956 1
    9593     3313     3314 1
    9594     4230     4231 1
    9595     4871     4873 1
    9596      755      756 1
    9597      252      254 1
    9598     9500     9502 1
    9599      371      372 1
    9600      798      799 1
    9601     9368     9370 1
    9602     5291     5293 1
    9603     9530     9532 1
    9604     7613     7615 1
    9605    10205    10207 1
    9606     8207     8209 1
    9607     8288     8290 1
    9608     7532     7534 1
    9609    10124    10126 1
    9610    10043    10045 1
    9611      218      220 1
    9612     3411     3412 1
    9613    11759    11761 1
    9614     8051     8052 1
    9615     5597     5599 1
    9616     8513     8515 1
    9617     6596     6598 1
    9618    10430    10432 1
    9619     2155     2156 1
    9620     1780     1781 1
    9621     6758     6760 1
    9622     1927     1928 1
    9623     9215     9217 1
    9624    10970    10972 1
    9625      231      233 1
    9626     4859     4860 1
    9627     9725     9727 1
    9628    12239    12240 1
    9629     9437     9438 1
    9630    11435    11436 1
    9631    12218    12219 1
    9632     5306     5307 1
    9633     8180     8181 1
    9634    10382    10383 1
    9635    10463    10464 1
    9636     5387     5388 1
    9637     4835     4836 1
    9638    10220    10221 1
    9639     2431     2432 1
    9640     3512     3513 1
    9641     3739     3740 1
    9642     7292     7293 1
    9643     7454     7455 1
    9644     2270     2271 1
    9645     2450     2455 1
    9646     9821     9823 1
    9647    10739    10741 1
    9648     5582     5584 1
    9649     7343     7345 1
    9650     3962     3967 1
    9651     6743     6745 1
    9652     4052     4053 1
    9653     3837     3838 1
    9654      785      786 1
    9655     2765     2766 1
    9656     9803     9805 1
    9657     2977     2978 1
    9658     8990     8991 1
    9659      522      523 1
    9660     2550     2551 1
    9661    10268    10270 1
    9662     4551     4552 1
    9663      160      161 1
    9664     1945     1946 1
@<TRIPOS>SUBSTRUCTURE
       1 RES             1 RESIDUE    0 **** ROOT      0
