@<TRIPOS>MOLECULE
RES
12352 9664 1 0 1
SMALL
NO_CHARGES
@<TRIPOS>CRYSIN
   56.8820    52.6300    96.3130    90.0000    90.0000    90.0000  1  1
@<TRIPOS>ATOM
       1 CH3         32.8634    21.9089     0.0000 CH3           1 RES     
       2 CH3         31.9448    23.1337     1.7858 CH3           1 RES     
       3 CH3         34.0743    23.2596     1.3040 CH3           1 RES     
       4 NL          32.8592    23.0880     0.8091 NL            1 RES     
       5 CH2         32.7252    24.1912    -0.0295 CH2           1 RES     
       6 CH2         31.3075    23.9612    -0.5853 CH2           1 RES     
       7 OA          31.0693    25.7722    -4.0374 OA            1 RES     
       8 P           31.4272    24.6150    -2.9920 P             1 RES     
       9 OM          30.6119    23.3147    -3.4442 OM            1 RES     
      10 OM          33.0178    24.4441    -3.0178 OM            1 RES     
      11 OA          30.9604    25.0561    -1.5265 OA            1 RES     
      12 CH2         31.5157    25.3293    -5.3827 CH2           1 RES     
      13 CH1         31.1870    26.4206    -6.4184 CH1           1 RES     
      14 OE          32.4288    26.8782    -7.0584 OE            1 RES     
      15 C           31.9657    26.4735    -8.4265 C             1 RES     
      16 O           30.8768    25.9552    -8.6685 O             1 RES     
      17 CH2         33.1177    26.6464    -9.2125 CH2           1 RES     
      18 CH2         32.6666    26.0980   -10.5790 CH2           1 RES     
      19 CH2         33.8723    26.0464   -11.5357 CH2           1 RES     
      20 CH2         33.4213    25.4980   -12.9022 CH2           1 RES     
      21 CH2         34.6270    25.4465   -13.8588 CH2           1 RES     
      22 CH2         34.1760    24.8981   -15.2253 CH2           1 RES     
      23 CH2         35.3817    24.8465   -16.1820 CH2           1 RES     
      24 CH2         34.9306    24.2981   -17.5485 CH2           1 RES     
      25 CH2         36.1364    24.2465   -18.5051 CH2           1 RES     
      26 CH2         35.6853    23.6981   -19.8716 CH2           1 RES     
      27 CH2         36.8911    23.6466   -20.8282 CH2           1 RES     
      28 CH2         36.4400    23.0982   -22.1948 CH2           1 RES     
      29 CH2         37.6457    23.0466   -23.1514 CH2           1 RES     
      30 CH2         37.1947    22.4982   -24.5179 CH2           1 RES     
      31 CH2         38.4004    22.4466   -25.4745 CH2           1 RES     
      32 CH2         37.9494    21.8982   -26.8411 CH2           1 RES     
      33 CH3         39.1003    21.8490   -27.7542 CH3           1 RES     
      34 CH2         30.2398    25.8446    -7.4874 CH2           1 RES     
      35 OE          28.9581    25.5009    -6.8682 OE            1 RES     
      36 C           28.2449    25.0251    -8.0990 C             1 RES     
      37 O           27.0871    24.6103    -8.1168 O             1 RES     
      38 CH2         29.2667    24.9960    -9.0633 CH2           1 RES     
      39 CH2         28.5519    24.3767   -10.2787 CH2           1 RES     
      40 CH2         29.5778    24.1038   -11.3943 CH2           1 RES     
      41 CH2         28.8630    23.4845   -12.6097 CH2           1 RES     
      42 CH2         29.8889    23.2115   -13.7253 CH2           1 RES     
      43 CH2         29.1742    22.5923   -14.9407 CH2           1 RES     
      44 CH2         30.2001    22.3193   -16.0563 CH2           1 RES     
      45 CH2         29.4853    21.7001   -17.2717 CH2           1 RES     
      46 CH2         30.5112    21.4271   -18.3873 CH2           1 RES     
      47 CH2         29.7965    20.8079   -19.6028 CH2           1 RES     
      48 CH2         30.8224    20.5349   -20.7183 CH2           1 RES     
      49 CH2         30.1076    19.9156   -21.9338 CH2           1 RES     
      50 CH2         31.1335    19.6427   -23.0494 CH2           1 RES     
      51 CH2         30.4188    19.0234   -24.2648 CH2           1 RES     
      52 CH2         31.4447    18.7504   -25.3804 CH2           1 RES     
      53 CH2         30.7299    18.1312   -26.5958 CH2           1 RES     
      54 CH3         31.7092    17.8706   -27.6607 CH3           1 RES     
      55 CH3         27.3861    27.3861     0.0000 CH3           1 RES     
      56 CH3         26.1850    28.3354     1.7858 CH3           1 RES     
      57 CH3         28.2116    29.0015     1.3040 CH3           1 RES     
      58 NL          27.0807    28.5250     0.8091 NL            1 RES     
      59 CH2         26.6691    29.5573    -0.0295 CH2           1 RES     
      60 CH2         25.3574    28.9725    -0.5853 CH2           1 RES     
      61 OA          24.6641    30.6624    -4.0374 OA            1 RES     
      62 P           25.3059    29.6352    -2.9920 P             1 RES     
      63 OM          24.8501    28.1697    -3.4442 OM            1 RES     
      64 OM          26.8874    29.8766    -3.0178 OM            1 RES     
      65 OA          24.7418    29.9423    -1.5265 OA            1 RES     
      66 CH2         25.2089    30.3484    -5.3827 CH2           1 RES     
      67 CH1         24.6122    31.3194    -6.4184 CH1           1 RES     
      68 OE          25.6957    32.0792    -7.0584 OE            1 RES     
      69 C           25.3515    31.5696    -8.4265 C             1 RES     
      70 O           24.4313    30.7901    -8.6685 O             1 RES     
      71 CH2         26.4209    32.0312    -9.2125 CH2           1 RES     
      72 CH2         26.1250    31.3857   -10.5790 CH2           1 RES     
      73 CH2         27.3039    31.6441   -11.5357 CH2           1 RES     
      74 CH2         27.0080    30.9986   -12.9022 CH2           1 RES     
      75 CH2         28.1869    31.2570   -13.8588 CH2           1 RES     
      76 CH2         27.8910    30.6115   -15.2253 CH2           1 RES     
      77 CH2         29.0699    30.8699   -16.1820 CH2           1 RES     
      78 CH2         28.7740    30.2244   -17.5485 CH2           1 RES     
      79 CH2         29.9528    30.4828   -18.5051 CH2           1 RES     
      80 CH2         29.6569    29.8373   -19.8716 CH2           1 RES     
      81 CH2         30.8358    30.0957   -20.8282 CH2           1 RES     
      82 CH2         30.5399    29.4502   -22.1948 CH2           1 RES     
      83 CH2         31.7188    29.7086   -23.1514 CH2           1 RES     
      84 CH2         31.4229    29.0631   -24.5179 CH2           1 RES     
      85 CH2         32.6018    29.3214   -25.4745 CH2           1 RES     
      86 CH2         32.3059    28.6759   -26.8411 CH2           1 RES     
      87 CH3         33.4312    28.9226   -27.7542 CH3           1 RES     
      88 CH2         23.8436    30.5204    -7.4874 CH2           1 RES     
      89 OE          22.6923    29.8605    -6.8682 OE            1 RES     
      90 C           22.1245    29.2181    -8.0990 C             1 RES     
      91 O           21.1112    28.5212    -8.1168 O             1 RES     
      92 CH2         23.1198    29.4512    -9.0633 CH2           1 RES     
      93 CH2         22.5870    28.6698   -10.2787 CH2           1 RES     
      94 CH2         23.6487    28.6682   -11.3943 CH2           1 RES     
      95 CH2         23.1159    27.8868   -12.6097 CH2           1 RES     
      96 CH2         24.1775    27.8851   -13.7253 CH2           1 RES     
      97 CH2         23.6448    27.1038   -14.9407 CH2           1 RES     
      98 CH2         24.7064    27.1021   -16.0563 CH2           1 RES     
      99 CH2         24.1737    26.3207   -17.2717 CH2           1 RES     
     100 CH2         25.2353    26.3191   -18.3873 CH2           1 RES     
     101 CH2         24.7026    25.5377   -19.6028 CH2           1 RES     
     102 CH2         25.7642    25.5360   -20.7183 CH2           1 RES     
     103 CH2         25.2315    24.7546   -21.9338 CH2           1 RES     
     104 CH2         26.2931    24.7530   -23.0494 CH2           1 RES     
     105 CH2         25.7604    23.9716   -24.2648 CH2           1 RES     
     106 CH2         26.8220    23.9700   -25.3804 CH2           1 RES     
     107 CH2         26.2893    23.1886   -26.5958 CH2           1 RES     
     108 CH3         27.3026    23.1870   -27.6607 CH3           1 RES     
     109 CH3          5.4772    21.9089     0.0000 CH3           1 RES     
     110 CH3          4.5696    23.1419     1.7858 CH3           1 RES     
     111 CH3          6.7002    23.2487     1.3040 CH3           1 RES     
     112 NL           5.4836    23.0880     0.8091 NL            1 RES     
     113 CH2          5.3594    24.1924    -0.0295 CH2           1 RES     
     114 CH2          3.9398    23.9750    -0.5853 CH2           1 RES     
     115 OA           3.7177    25.7880    -4.0374 OA            1 RES     
     116 P            4.0653    24.6277    -2.9920 P             1 RES     
     117 OM           3.2385    23.3348    -3.4442 OM            1 RES     
     118 OM           5.6543    24.4427    -3.0178 OM            1 RES     
     119 OA           3.6024    25.0730    -1.5265 OA            1 RES     
     120 CH2          4.1601    25.3412    -5.3827 CH2           1 RES     
     121 CH1          3.8412    26.4354    -6.4184 CH1           1 RES     
     122 OE           5.0870    26.8819    -7.0584 OE            1 RES     
     123 C            4.6204    26.4813    -8.4265 C             1 RES     
     124 O            3.5269    25.9727    -8.6685 O             1 RES     
     125 CH2          5.7738    26.6440    -9.2125 CH2           1 RES     
     126 CH2          5.3179    26.0996   -10.5790 CH2           1 RES     
     127 CH2          6.5231    26.0373   -11.5357 CH2           1 RES     
     128 CH2          6.0672    25.4929   -12.9022 CH2           1 RES     
     129 CH2          7.2724    25.4306   -13.8588 CH2           1 RES     
     130 CH2          6.8165    24.8862   -15.2253 CH2           1 RES     
     131 CH2          8.0217    24.8239   -16.1820 CH2           1 RES     
     132 CH2          7.5658    24.2795   -17.5485 CH2           1 RES     
     133 CH2          8.7710    24.2172   -18.5051 CH2           1 RES     
     134 CH2          8.3150    23.6729   -19.8716 CH2           1 RES     
     135 CH2          9.5203    23.6106   -20.8282 CH2           1 RES     
     136 CH2          9.0643    23.0662   -22.1948 CH2           1 RES     
     137 CH2         10.2696    23.0039   -23.1514 CH2           1 RES     
     138 CH2          9.8136    22.4595   -24.5179 CH2           1 RES     
     139 CH2         11.0189    22.3972   -25.4745 CH2           1 RES     
     140 CH2         10.5629    21.8528   -26.8411 CH2           1 RES     
     141 CH3         11.7134    21.7933   -27.7542 CH3           1 RES     
     142 CH2          2.8889    25.8679    -7.4874 CH2           1 RES     
     143 OE           1.6041    25.5356    -6.8682 OE            1 RES     
     144 C            0.8868    25.0662    -8.0990 C             1 RES     
     145 O           -0.2747    24.6617    -8.1168 O             1 RES     
     146 CH2          1.9082    25.0280    -9.0633 CH2           1 RES     
     147 CH2          1.1879    24.4151   -10.2787 CH2           1 RES     
     148 CH2          2.2114    24.1330   -11.3943 CH2           1 RES     
     149 CH2          1.4911    23.5202   -12.6097 CH2           1 RES     
     150 CH2          2.5146    23.2380   -13.7253 CH2           1 RES     
     151 CH2          1.7943    22.6252   -14.9407 CH2           1 RES     
     152 CH2          2.8177    22.3431   -16.0563 CH2           1 RES     
     153 CH2          2.0975    21.7302   -17.2717 CH2           1 RES     
     154 CH2          3.1209    21.4481   -18.3873 CH2           1 RES     
     155 CH2          2.4006    20.8353   -19.6028 CH2           1 RES     
     156 CH2          3.4241    20.5532   -20.7183 CH2           1 RES     
     157 CH2          2.7038    19.9403   -21.9338 CH2           1 RES     
     158 CH2          3.7272    19.6582   -23.0494 CH2           1 RES     
     159 CH2          3.0070    19.0454   -24.2648 CH2           1 RES     
     160 CH2          4.0304    18.7632   -25.3804 CH2           1 RES     
     161 CH2          3.3101    18.1504   -26.5958 CH2           1 RES     
     162 CH3          4.2871    17.8811   -27.6607 CH3           1 RES     
     163 CH3         32.8634    38.3406     0.0000 CH3           1 RES     
     164 CH3         31.4961    39.0296     1.7858 CH3           1 RES     
     165 CH3         33.3479    40.0887     1.3040 CH3           1 RES     
     166 NL          32.3357    39.3950     0.8091 NL            1 RES     
     167 CH2         31.7253    40.3237    -0.0295 CH2           1 RES     
     168 CH2         30.5576    39.4876    -0.5853 CH2           1 RES     
     169 OA          29.5394    41.0041    -4.0374 OA            1 RES     
     170 P           30.3742    40.1266    -2.9920 P             1 RES     
     171 OM          30.2217    38.5994    -3.4442 OM            1 RES     
     172 OM          31.8751    40.6804    -3.0178 OM            1 RES     
     173 OA          29.7600    40.3142    -1.5265 OA            1 RES     
     174 CH2         30.1360    40.8058    -5.3827 CH2           1 RES     
     175 CH1         29.3566    41.6373    -6.4184 CH1           1 RES     
     176 OE          30.2657    42.5991    -7.0584 OE            1 RES     
     177 C           30.0307    42.0307    -8.4265 C             1 RES     
     178 O           29.2856    41.0825    -8.6685 O             1 RES     
     179 CH2         30.9858    42.6976    -9.2125 CH2           1 RES     
     180 CH2         30.8254    42.0058   -10.5790 CH2           1 RES     
     181 CH2         31.9285    42.4955   -11.5357 CH2           1 RES     
     182 CH2         31.7681    41.8038   -12.9022 CH2           1 RES     
     183 CH2         32.8712    42.2934   -13.8588 CH2           1 RES     
     184 CH2         32.7108    41.6017   -15.2253 CH2           1 RES     
     185 CH2         33.8139    42.0913   -16.1820 CH2           1 RES     
     186 CH2         33.6535    41.3996   -17.5485 CH2           1 RES     
     187 CH2         34.7566    41.8892   -18.5051 CH2           1 RES     
     188 CH2         34.5962    41.1975   -19.8716 CH2           1 RES     
     189 CH2         35.6993    41.6872   -20.8282 CH2           1 RES     
     190 CH2         35.5389    40.9954   -22.1948 CH2           1 RES     
     191 CH2         36.6419    41.4851   -23.1514 CH2           1 RES     
     192 CH2         36.4816    40.7933   -24.5179 CH2           1 RES     
     193 CH2         37.5846    41.2830   -25.4745 CH2           1 RES     
     194 CH2         37.4243    40.5912   -26.8411 CH2           1 RES     
     195 CH3         38.4772    41.0586   -27.7542 CH3           1 RES     
     196 CH2         28.7640    40.7004    -7.4874 CH2           1 RES     
     197 OE          27.7686    39.8229    -6.8682 OE            1 RES     
     198 C           27.3412    39.0797    -8.0990 C             1 RES     
     199 O           26.4883    38.1936    -8.1168 O             1 RES     
     200 CH2         28.2694    39.5077    -9.0633 CH2           1 RES     
     201 CH2         27.9043    38.6353   -10.2787 CH2           1 RES     
     202 CH2         28.9447    38.8467   -11.3943 CH2           1 RES     
     203 CH2         28.5795    37.9743   -12.6097 CH2           1 RES     
     204 CH2         29.6199    38.1857   -13.7253 CH2           1 RES     
     205 CH2         29.2548    37.3133   -14.9407 CH2           1 RES     
     206 CH2         30.2951    37.5247   -16.0563 CH2           1 RES     
     207 CH2         29.9300    36.6523   -17.2717 CH2           1 RES     
     208 CH2         30.9704    36.8637   -18.3873 CH2           1 RES     
     209 CH2         30.6053    35.9913   -19.6028 CH2           1 RES     
     210 CH2         31.6456    36.2027   -20.7183 CH2           1 RES     
     211 CH2         31.2805    35.3303   -21.9338 CH2           1 RES     
     212 CH2         32.3209    35.5417   -23.0494 CH2           1 RES     
     213 CH2         31.9557    34.6693   -24.2648 CH2           1 RES     
     214 CH2         32.9961    34.8807   -25.3804 CH2           1 RES     
     215 CH2         32.6310    34.0083   -26.5958 CH2           1 RES     
     216 CH3         33.6240    34.2101   -27.6607 CH3           1 RES     
     217 CH3         32.8634    10.9545     0.0000 CH3           1 RES     
     218 CH3         31.5800    11.7893     1.7858 CH3           1 RES     
     219 CH3         33.5367    12.6389     1.3040 CH3           1 RES     
     220 NL          32.4545    12.0604     0.8091 NL            1 RES     
     221 CH2         31.9497    13.0505    -0.0295 CH2           1 RES     
     222 CH2         30.6973    12.3475    -0.5853 CH2           1 RES     
     223 OA          29.8515    13.9665    -4.0374 OA            1 RES     
     224 P           30.5851    13.0027    -2.9920 P             1 RES     
     225 OM          30.2661    11.5015    -3.4442 OM            1 RES     
     226 OM          32.1377    13.3885    -3.0178 OM            1 RES     
     227 OA          29.9952    13.2566    -1.5265 OA            1 RES     
     228 CH2         30.4229    13.7039    -5.3827 CH2           1 RES     
     229 CH1         29.7394    14.6159    -6.4184 CH1           1 RES     
     230 OE          30.7484    15.4722    -7.0584 OE            1 RES     
     231 C           30.4526    14.9330    -8.4265 C             1 RES     
     232 O           29.6079    14.0722    -8.6685 O             1 RES     
     233 CH2         31.4750    15.4911    -9.2125 CH2           1 RES     
     234 CH2         31.2397    14.8211   -10.5790 CH2           1 RES     
     235 CH2         32.3898    15.1868   -11.5357 CH2           1 RES     
     236 CH2         32.1546    14.5169   -12.9022 CH2           1 RES     
     237 CH2         33.3047    14.8826   -13.8588 CH2           1 RES     
     238 CH2         33.0694    14.2126   -15.2253 CH2           1 RES     
     239 CH2         34.2195    14.5783   -16.1820 CH2           1 RES     
     240 CH2         33.9843    13.9083   -17.5485 CH2           1 RES     
     241 CH2         35.1343    14.2741   -18.5051 CH2           1 RES     
     242 CH2         34.8991    13.6041   -19.8716 CH2           1 RES     
     243 CH2         36.0492    13.9698   -20.8282 CH2           1 RES     
     244 CH2         35.8139    13.2998   -22.1948 CH2           1 RES     
     245 CH2         36.9640    13.6656   -23.1514 CH2           1 RES     
     246 CH2         36.7288    12.9956   -24.5179 CH2           1 RES     
     247 CH2         37.8789    13.3613   -25.4745 CH2           1 RES     
     248 CH2         37.6436    12.6913   -26.8411 CH2           1 RES     
     249 CH3         38.7414    13.0404   -27.7542 CH3           1 RES     
     250 CH2         29.0476    13.7496    -7.4874 CH2           1 RES     
     251 OE          27.9619    12.9866    -6.8682 OE            1 RES     
     252 C           27.4556    12.2947    -8.0990 C             1 RES     
     253 O           26.5106    11.5075    -8.1168 O             1 RES     
     254 CH2         28.4251    12.6184    -9.0633 CH2           1 RES     
     255 CH2         27.9665    11.7913   -10.2787 CH2           1 RES     
     256 CH2         29.0238    11.8873   -11.3943 CH2           1 RES     
     257 CH2         28.5652    11.0602   -12.6097 CH2           1 RES     
     258 CH2         29.6225    11.1562   -13.7253 CH2           1 RES     
     259 CH2         29.1639    10.3291   -14.9407 CH2           1 RES     
     260 CH2         30.2211    10.4251   -16.0563 CH2           1 RES     
     261 CH2         29.7625     9.5981   -17.2717 CH2           1 RES     
     262 CH2         30.8198     9.6941   -18.3873 CH2           1 RES     
     263 CH2         30.3612     8.8670   -19.6028 CH2           1 RES     
     264 CH2         31.4185     8.9630   -20.7183 CH2           1 RES     
     265 CH2         30.9599     8.1359   -21.9338 CH2           1 RES     
     266 CH2         32.0172     8.2319   -23.0494 CH2           1 RES     
     267 CH2         31.5586     7.4049   -24.2648 CH2           1 RES     
     268 CH2         32.6158     7.5009   -25.3804 CH2           1 RES     
     269 CH2         32.1572     6.6738   -26.5958 CH2           1 RES     
     270 CH3         33.1664     6.7654   -27.6607 CH3           1 RES     
     271 CH3         10.9545     5.4772     0.0000 CH3           1 RES     
     272 CH3          9.9309     6.6158     1.7858 CH3           1 RES     
     273 CH3         12.0408     6.9300     1.3040 CH3           1 RES     
     274 NL          10.8458     6.6513     0.8091 NL            1 RES     
     275 CH2         10.6144     7.7383    -0.0295 CH2           1 RES     
     276 CH2          9.2228     7.3834    -0.5853 CH2           1 RES     
     277 OA           8.8249     9.1662    -4.0374 OA            1 RES     
     278 P            9.2840     8.0453    -2.9920 P             1 RES     
     279 OM           8.5872     6.6778    -3.4442 OM            1 RES     
     280 OM          10.8835     8.0162    -3.0178 OM            1 RES     
     281 OA           8.7799     8.4433    -1.5265 OA            1 RES     
     282 CH2          9.3088     8.7647    -5.3827 CH2           1 RES     
     283 CH1          8.8846     9.8225    -6.4184 CH1           1 RES     
     284 OE          10.0809    10.3884    -7.0584 OE            1 RES     
     285 C            9.6556     9.9442    -8.4265 C             1 RES     
     286 O            8.6169     9.3314    -8.6685 O             1 RES     
     287 CH2         10.7876    10.2186    -9.2125 CH2           1 RES     
     288 CH2         10.3870     9.6324   -10.5790 CH2           1 RES     
     289 CH2         11.5925     9.6879   -11.5357 CH2           1 RES     
     290 CH2         11.1919     9.1017   -12.9022 CH2           1 RES     
     291 CH2         12.3974     9.1573   -13.8588 CH2           1 RES     
     292 CH2         11.9968     8.5710   -15.2253 CH2           1 RES     
     293 CH2         13.2024     8.6266   -16.1820 CH2           1 RES     
     294 CH2         12.8017     8.0403   -17.5485 CH2           1 RES     
     295 CH2         14.0073     8.0959   -18.5051 CH2           1 RES     
     296 CH2         13.6066     7.5097   -19.8716 CH2           1 RES     
     297 CH2         14.8122     7.5652   -20.8282 CH2           1 RES     
     298 CH2         14.4115     6.9790   -22.1948 CH2           1 RES     
     299 CH2         15.6171     7.0346   -23.1514 CH2           1 RES     
     300 CH2         15.2165     6.4483   -24.5179 CH2           1 RES     
     301 CH2         16.4220     6.5039   -25.4745 CH2           1 RES     
     302 CH2         16.0214     5.9176   -26.8411 CH2           1 RES     
     303 CH3         17.1721     5.9707   -27.7542 CH3           1 RES     
     304 CH2          7.9922     9.1648    -7.4874 CH2           1 RES     
     305 OE           6.7460     8.7088    -6.8682 OE            1 RES     
     306 C            6.0778     8.1715    -8.0990 C             1 RES     
     307 O            4.9614     7.6557    -8.1168 O             1 RES     
     308 CH2          7.0981     8.2332    -9.0633 CH2           1 RES     
     309 CH2          6.4411     7.5530   -10.2787 CH2           1 RES     
     310 CH2          7.4872     7.3721   -11.3943 CH2           1 RES     
     311 CH2          6.8301     6.6919   -12.6097 CH2           1 RES     
     312 CH2          7.8762     6.5110   -13.7253 CH2           1 RES     
     313 CH2          7.2192     5.8308   -14.9407 CH2           1 RES     
     314 CH2          8.2653     5.6498   -16.0563 CH2           1 RES     
     315 CH2          7.6082     4.9697   -17.2717 CH2           1 RES     
     316 CH2          8.6543     4.7887   -18.3873 CH2           1 RES     
     317 CH2          7.9973     4.1085   -19.6028 CH2           1 RES     
     318 CH2          9.0434     3.9276   -20.7183 CH2           1 RES     
     319 CH2          8.3863     3.2474   -21.9338 CH2           1 RES     
     320 CH2          9.4324     3.0665   -23.0494 CH2           1 RES     
     321 CH2          8.7754     2.3863   -24.2648 CH2           1 RES     
     322 CH2          9.8215     2.2054   -25.3804 CH2           1 RES     
     323 CH2          9.1644     1.5252   -26.5958 CH2           1 RES     
     324 CH3         10.1630     1.3525   -27.6607 CH3           1 RES     
     325 CH3         21.9089    27.3861     0.0000 CH3           1 RES     
     326 CH3         20.6338    28.2335     1.7858 CH3           1 RES     
     327 CH3         22.5988    29.0639     1.3040 CH3           1 RES     
     328 NL          21.5110    28.4960     0.8091 NL            1 RES     
     329 CH2         21.0159    29.4910    -0.0295 CH2           1 RES     
     330 CH2         19.7567    28.8004    -0.5853 CH2           1 RES     
     331 OA          18.9269    30.4277    -4.0374 OA            1 RES     
     332 P           19.6509    29.4567    -2.9920 P             1 RES     
     333 OM          19.3171    27.9587    -3.4442 OM            1 RES     
     334 OM          21.2072    29.8272    -3.0178 OM            1 RES     
     335 OA          19.0635    29.7164    -1.5265 OA            1 RES     
     336 CH2         19.4956    30.1595    -5.3827 CH2           1 RES     
     337 CH1         18.8211    31.0782    -6.4184 CH1           1 RES     
     338 OE          19.8386    31.9245    -7.0584 OE            1 RES     
     339 C           19.5374    31.3882    -8.4265 C             1 RES     
     340 O           18.6843    30.5358    -8.6685 O             1 RES     
     341 CH2         20.5653    31.9362    -9.2125 CH2           1 RES     
     342 CH2         20.3235    31.2686   -10.5790 CH2           1 RES     
     343 CH2         21.4771    31.6230   -11.5357 CH2           1 RES     
     344 CH2         21.2353    30.9553   -12.9022 CH2           1 RES     
     345 CH2         22.3889    31.3097   -13.8588 CH2           1 RES     
     346 CH2         22.1471    30.6421   -15.2253 CH2           1 RES     
     347 CH2         23.3007    30.9965   -16.1820 CH2           1 RES     
     348 CH2         23.0589    30.3288   -17.5485 CH2           1 RES     
     349 CH2         24.2125    30.6832   -18.5051 CH2           1 RES     
     350 CH2         23.9707    30.0156   -19.8716 CH2           1 RES     
     351 CH2         25.1243    30.3699   -20.8282 CH2           1 RES     
     352 CH2         24.8824    29.7023   -22.1948 CH2           1 RES     
     353 CH2         26.0361    30.0567   -23.1514 CH2           1 RES     
     354 CH2         25.7942    29.3891   -24.5179 CH2           1 RES     
     355 CH2         26.9479    29.7434   -25.4745 CH2           1 RES     
     356 CH2         26.7060    29.0758   -26.8411 CH2           1 RES     
     357 CH3         27.8072    29.4141   -27.7542 CH3           1 RES     
     358 CH2         18.1209    30.2188    -7.4874 CH2           1 RES     
     359 OE          17.0277    29.4665    -6.8682 OE            1 RES     
     360 C           16.5146    28.7796    -8.0990 C             1 RES     
     361 O           15.5619    28.0018    -8.1168 O             1 RES     
     362 CH2         17.4873    29.0937    -9.0633 CH2           1 RES     
     363 CH2         17.0206    28.2712   -10.2787 CH2           1 RES     
     364 CH2         18.0787    28.3568   -11.3943 CH2           1 RES     
     365 CH2         17.6120    27.5342   -12.6097 CH2           1 RES     
     366 CH2         18.6702    27.6198   -13.7253 CH2           1 RES     
     367 CH2         18.2034    26.7973   -14.9407 CH2           1 RES     
     368 CH2         19.2616    26.8829   -16.0563 CH2           1 RES     
     369 CH2         18.7949    26.0604   -17.2717 CH2           1 RES     
     370 CH2         19.8530    26.1460   -18.3873 CH2           1 RES     
     371 CH2         19.3863    25.3234   -19.6028 CH2           1 RES     
     372 CH2         20.4445    25.4090   -20.7183 CH2           1 RES     
     373 CH2         19.9778    24.5865   -21.9338 CH2           1 RES     
     374 CH2         21.0359    24.6721   -23.0494 CH2           1 RES     
     375 CH2         20.5692    23.8496   -24.2648 CH2           1 RES     
     376 CH2         21.6274    23.9351   -25.3804 CH2           1 RES     
     377 CH2         21.1606    23.1126   -26.5958 CH2           1 RES     
     378 CH3         22.1707    23.1943   -27.6607 CH3           1 RES     
     379 CH3         16.4317    21.9089     0.0000 CH3           1 RES     
     380 CH3         15.4934    23.1188     1.7858 CH3           1 RES     
     381 CH3         17.6207    23.2790     1.3040 CH3           1 RES     
     382 NL          16.4085    23.0877     0.8091 NL            1 RES     
     383 CH2         16.2567    24.1887    -0.0295 CH2           1 RES     
     384 CH2         14.8429    23.9358    -0.5853 CH2           1 RES     
     385 OA          14.5755    25.7427    -4.0374 OA            1 RES     
     386 P           14.9520    24.5915    -2.9920 P             1 RES     
     387 OM          14.1579    23.2782    -3.4442 OM            1 RES     
     388 OM          16.5452    24.4463    -3.0178 OM            1 RES     
     389 OA          14.4781    25.0250    -1.5265 OA            1 RES     
     390 CH2         15.0290    25.3071    -5.3827 CH2           1 RES     
     391 CH1         14.6827    26.3929    -6.4184 CH1           1 RES     
     392 OE          15.9169    26.8705    -7.0584 OE            1 RES     
     393 C           15.4605    26.4584    -8.4265 C             1 RES     
     394 O           14.3801    25.9226    -8.6685 O             1 RES     
     395 CH2         16.6095    26.6499    -9.2125 CH2           1 RES     
     396 CH2         16.1673    26.0943   -10.5790 CH2           1 RES     
     397 CH2         17.3737    26.0622   -11.5357 CH2           1 RES     
     398 CH2         16.9316    25.5066   -12.9022 CH2           1 RES     
     399 CH2         18.1380    25.4745   -13.8588 CH2           1 RES     
     400 CH2         17.6959    24.9189   -15.2253 CH2           1 RES     
     401 CH2         18.9023    24.8868   -16.1820 CH2           1 RES     
     402 CH2         18.4601    24.3311   -17.5485 CH2           1 RES     
     403 CH2         19.6665    24.2991   -18.5051 CH2           1 RES     
     404 CH2         19.2244    23.7434   -19.8716 CH2           1 RES     
     405 CH2         20.4308    23.7114   -20.8282 CH2           1 RES     
     406 CH2         19.9887    23.1557   -22.1948 CH2           1 RES     
     407 CH2         21.1951    23.1236   -23.1514 CH2           1 RES     
     408 CH2         20.7529    22.5680   -24.5179 CH2           1 RES     
     409 CH2         21.9593    22.5359   -25.4745 CH2           1 RES     
     410 CH2         21.5172    21.9803   -26.8411 CH2           1 RES     
     411 CH3         22.6688    21.9497   -27.7542 CH3           1 RES     
     412 CH2         13.7449    25.8018    -7.4874 CH2           1 RES     
     413 OE          12.4689    25.4374    -6.8682 OE            1 RES     
     414 C           11.7635    24.9501    -8.0990 C             1 RES     
     415 O           10.6125    24.5167    -8.1168 O             1 RES     
     416 CH2         12.7856    24.9375    -9.0633 CH2           1 RES     
     417 CH2         12.0809    24.3068   -10.2787 CH2           1 RES     
     418 CH2         13.1111    24.0504   -11.3943 CH2           1 RES     
     419 CH2         12.4064    23.4198   -12.6097 CH2           1 RES     
     420 CH2         13.4366    23.1634   -13.7253 CH2           1 RES     
     421 CH2         12.7319    22.5327   -14.9407 CH2           1 RES     
     422 CH2         13.7621    22.2763   -16.0563 CH2           1 RES     
     423 CH2         13.0574    21.6456   -17.2717 CH2           1 RES     
     424 CH2         14.0876    21.3892   -18.3873 CH2           1 RES     
     425 CH2         13.3830    20.7585   -19.6028 CH2           1 RES     
     426 CH2         14.4131    20.5021   -20.7183 CH2           1 RES     
     427 CH2         13.7085    19.8714   -21.9338 CH2           1 RES     
     428 CH2         14.7387    19.6150   -23.0494 CH2           1 RES     
     429 CH2         14.0340    18.9843   -24.2648 CH2           1 RES     
     430 CH2         15.0642    18.7280   -25.3804 CH2           1 RES     
     431 CH2         14.3595    18.0973   -26.5958 CH2           1 RES     
     432 CH3         15.3428    17.8525   -27.6607 CH3           1 RES     
     433 CH3          5.4772    16.4317     0.0000 CH3           1 RES     
     434 CH3          4.2431    17.3378     1.7858 CH3           1 RES     
     435 CH3          6.2448    18.0753     1.3040 CH3           1 RES     
     436 NL           5.1316    17.5590     0.8091 NL            1 RES     
     437 CH2          4.6836    18.5760    -0.0295 CH2           1 RES     
     438 CH2          3.3935    17.9451    -0.5853 CH2           1 RES     
     439 OA           2.6407    19.6093    -4.0374 OA            1 RES     
     440 P            3.3185    18.6055    -2.9920 P             1 RES     
     441 OM           2.9150    17.1248    -3.4442 OM            1 RES     
     442 OM           4.8904    18.9029    -3.0178 OM            1 RES     
     443 OA           2.7439    18.8924    -1.5265 OA            1 RES     
     444 CH2          3.1962    19.3148    -5.3827 CH2           1 RES     
     445 CH1          2.5654    20.2640    -6.4184 CH1           1 RES     
     446 OE           3.6213    21.0618    -7.0584 OE            1 RES     
     447 C            3.2954    20.5403    -8.4265 C             1 RES     
     448 O            2.4034    19.7287    -8.6685 O             1 RES     
     449 CH2          4.3478    21.0396    -9.2125 CH2           1 RES     
     450 CH2          4.0750    20.3840   -10.5790 CH2           1 RES     
     451 CH2          5.2440    20.6841   -11.5357 CH2           1 RES     
     452 CH2          4.9712    20.0285   -12.9022 CH2           1 RES     
     453 CH2          6.1401    20.3285   -13.8588 CH2           1 RES     
     454 CH2          5.8673    19.6729   -15.2253 CH2           1 RES     
     455 CH2          7.0363    19.9730   -16.1820 CH2           1 RES     
     456 CH2          6.7635    19.3174   -17.5485 CH2           1 RES     
     457 CH2          7.9324    19.6175   -18.5051 CH2           1 RES     
     458 CH2          7.6596    18.9619   -19.8716 CH2           1 RES     
     459 CH2          8.8286    19.2619   -20.8282 CH2           1 RES     
     460 CH2          8.5558    18.6063   -22.1948 CH2           1 RES     
     461 CH2          9.7248    18.9064   -23.1514 CH2           1 RES     
     462 CH2          9.4520    18.2508   -24.5179 CH2           1 RES     
     463 CH2         10.6209    18.5508   -25.4745 CH2           1 RES     
     464 CH2         10.3481    17.8952   -26.8411 CH2           1 RES     
     465 CH3         11.4639    18.1817   -27.7542 CH3           1 RES     
     466 CH2          1.8258    19.4383    -7.4874 CH2           1 RES     
     467 OE           0.6986    18.7379    -6.8682 OE            1 RES     
     468 C            0.1539    18.0758    -8.0990 C             1 RES     
     469 O           -0.8340    17.3434    -8.1168 O             1 RES     
     470 CH2          1.1403    18.3441    -9.0633 CH2           1 RES     
     471 CH2          0.6356    17.5443   -10.2787 CH2           1 RES     
     472 CH2          1.6966    17.5803   -11.3943 CH2           1 RES     
     473 CH2          1.1920    16.7805   -12.6097 CH2           1 RES     
     474 CH2          2.2530    16.8165   -13.7253 CH2           1 RES     
     475 CH2          1.7483    16.0167   -14.9407 CH2           1 RES     
     476 CH2          2.8093    16.0527   -16.0563 CH2           1 RES     
     477 CH2          2.3046    15.2530   -17.2717 CH2           1 RES     
     478 CH2          3.3656    15.2890   -18.3873 CH2           1 RES     
     479 CH2          2.8610    14.4892   -19.6028 CH2           1 RES     
     480 CH2          3.9220    14.5252   -20.7183 CH2           1 RES     
     481 CH2          3.4173    13.7254   -21.9338 CH2           1 RES     
     482 CH2          4.4783    13.7614   -23.0494 CH2           1 RES     
     483 CH2          3.9736    12.9616   -24.2648 CH2           1 RES     
     484 CH2          5.0347    12.9976   -25.3804 CH2           1 RES     
     485 CH2          4.5300    12.1978   -26.5958 CH2           1 RES     
     486 CH3          5.5428    12.2322   -27.6607 CH3           1 RES     
     487 CH3         32.8634    16.4317     0.0000 CH3           1 RES     
     488 CH3         31.5469    17.2134     1.7858 CH3           1 RES     
     489 CH3         33.4673    18.1422     1.3040 CH3           1 RES     
     490 NL          32.4097    17.5200     0.8091 NL            1 RES     
     491 CH2         31.8648    18.4886    -0.0295 CH2           1 RES     
     492 CH2         30.6422    17.7351    -0.5853 CH2           1 RES     
     493 OA          29.7310    19.3182    -4.0374 OA            1 RES     
     494 P           30.5033    18.3851    -2.9920 P             1 RES     
     495 OM          30.2459    16.8721    -3.4442 OM            1 RES     
     496 OM          32.0389    18.8341    -3.0178 OM            1 RES     
     497 OA          29.9035    18.6147    -1.5265 OA            1 RES     
     498 CH2         30.3126    19.0792    -5.3827 CH2           1 RES     
     499 CH1         29.5924    19.9625    -6.4184 CH1           1 RES     
     500 OE          30.5656    20.8592    -7.0584 OE            1 RES     
     501 C           30.2921    20.3085    -8.4265 C             1 RES     
     502 O           29.4833    19.4139    -8.6685 O             1 RES     
     503 CH2         31.2909    20.9078    -9.2125 CH2           1 RES     
     504 CH2         31.0832    20.2288   -10.5790 CH2           1 RES     
     505 CH2         32.2174    20.6412   -11.5357 CH2           1 RES     
     506 CH2         32.0097    19.9622   -12.9022 CH2           1 RES     
     507 CH2         33.1439    20.3746   -13.8588 CH2           1 RES     
     508 CH2         32.9362    19.6955   -15.2253 CH2           1 RES     
     509 CH2         34.0704    20.1079   -16.1820 CH2           1 RES     
     510 CH2         33.8627    19.4289   -17.5485 CH2           1 RES     
     511 CH2         34.9969    19.8413   -18.5051 CH2           1 RES     
     512 CH2         34.7892    19.1622   -19.8716 CH2           1 RES     
     513 CH2         35.9234    19.5746   -20.8282 CH2           1 RES     
     514 CH2         35.7157    18.8956   -22.1948 CH2           1 RES     
     515 CH2         36.8499    19.3080   -23.1514 CH2           1 RES     
     516 CH2         36.6422    18.6290   -24.5179 CH2           1 RES     
     517 CH2         37.7764    19.0414   -25.4745 CH2           1 RES     
     518 CH2         37.5687    18.3623   -26.8411 CH2           1 RES     
     519 CH3         38.6513    18.7560   -27.7542 CH3           1 RES     
     520 CH2         28.9366    19.0687    -7.4874 CH2           1 RES     
     521 OE          27.8830    18.2619    -6.8682 OE            1 RES     
     522 C           27.4053    17.5500    -8.0990 C             1 RES     
     523 O           26.4933    16.7248    -8.1168 O             1 RES     
     524 CH2         28.3609    17.9129    -9.0633 CH2           1 RES     
     525 CH2         27.9364    17.0678   -10.2787 CH2           1 RES     
     526 CH2         28.9889    17.2069   -11.3943 CH2           1 RES     
     527 CH2         28.5645    16.3618   -12.6097 CH2           1 RES     
     528 CH2         29.6169    16.5009   -13.7253 CH2           1 RES     
     529 CH2         29.1925    15.6558   -14.9407 CH2           1 RES     
     530 CH2         30.2450    15.7949   -16.0563 CH2           1 RES     
     531 CH2         29.8205    14.9498   -17.2717 CH2           1 RES     
     532 CH2         30.8730    15.0889   -18.3873 CH2           1 RES     
     533 CH2         30.4486    14.2438   -19.6028 CH2           1 RES     
     534 CH2         31.5010    14.3829   -20.7183 CH2           1 RES     
     535 CH2         31.0766    13.5378   -21.9338 CH2           1 RES     
     536 CH2         32.1291    13.6769   -23.0494 CH2           1 RES     
     537 CH2         31.7046    12.8318   -24.2648 CH2           1 RES     
     538 CH2         32.7571    12.9709   -25.3804 CH2           1 RES     
     539 CH2         32.3326    12.1258   -26.5958 CH2           1 RES     
     540 CH3         33.3373    12.2585   -27.6607 CH3           1 RES     
     541 CH3         10.9545    21.9089     0.0000 CH3           1 RES     
     542 CH3          9.8874    23.0068     1.7858 CH3           1 RES     
     543 CH3         11.9836    23.4028     1.3040 CH3           1 RES     
     544 NL          10.8002    23.0778     0.8091 NL            1 RES     
     545 CH2         10.5268    24.1551    -0.0295 CH2           1 RES     
     546 CH2          9.1500    23.7464    -0.5853 CH2           1 RES     
     547 OA           8.6831    25.5123    -4.0374 OA            1 RES     
     548 P            9.1854    24.4101    -2.9920 P             1 RES     
     549 OM           8.5424    23.0166    -3.4442 OM            1 RES     
     550 OM          10.7849    24.4432    -3.0178 OM            1 RES     
     551 OA           8.6662    24.7882    -1.5265 OA            1 RES     
     552 CH2          9.1822    25.1299    -5.3827 CH2           1 RES     
     553 CH1          8.7173    26.1704    -6.4184 CH1           1 RES     
     554 OE           9.8906    26.7824    -7.0584 OE            1 RES     
     555 C            9.4829    26.3220    -8.4265 C             1 RES     
     556 O            8.4689    25.6693    -8.6685 O             1 RES     
     557 CH2         10.6034    26.6402    -9.2125 CH2           1 RES     
     558 CH2         10.2259    26.0388   -10.5790 CH2           1 RES     
     559 CH2         11.4284    26.1412   -11.5357 CH2           1 RES     
     560 CH2         11.0508    25.5399   -12.9022 CH2           1 RES     
     561 CH2         12.2533    25.6423   -13.8588 CH2           1 RES     
     562 CH2         11.8757    25.0409   -15.2253 CH2           1 RES     
     563 CH2         13.0782    25.1433   -16.1820 CH2           1 RES     
     564 CH2         12.7007    24.5419   -17.5485 CH2           1 RES     
     565 CH2         13.9032    24.6443   -18.5051 CH2           1 RES     
     566 CH2         13.5256    24.0429   -19.8716 CH2           1 RES     
     567 CH2         14.7281    24.1453   -20.8282 CH2           1 RES     
     568 CH2         14.3506    23.5439   -22.1948 CH2           1 RES     
     569 CH2         15.5530    23.6463   -23.1514 CH2           1 RES     
     570 CH2         15.1755    23.0449   -24.5179 CH2           1 RES     
     571 CH2         16.3780    23.1473   -25.4745 CH2           1 RES     
     572 CH2         16.0004    22.5459   -26.8411 CH2           1 RES     
     573 CH3         17.1483    22.6437   -27.7542 CH3           1 RES     
     574 CH2          7.8511    25.4785    -7.4874 CH2           1 RES     
     575 OE           6.6235    24.9744    -6.8682 OE            1 RES     
     576 C            5.9768    24.4116    -8.0990 C             1 RES     
     577 O            4.8812    23.8528    -8.1168 O             1 RES     
     578 CH2          6.9939    24.5129    -9.0633 CH2           1 RES     
     579 CH2          6.3638    23.8077   -10.2787 CH2           1 RES     
     580 CH2          7.4162    23.6675   -11.3943 CH2           1 RES     
     581 CH2          6.7861    22.9623   -12.6097 CH2           1 RES     
     582 CH2          7.8384    22.8222   -13.7253 CH2           1 RES     
     583 CH2          7.2083    22.1170   -14.9407 CH2           1 RES     
     584 CH2          8.2606    21.9769   -16.0563 CH2           1 RES     
     585 CH2          7.6305    21.2716   -17.2717 CH2           1 RES     
     586 CH2          8.6828    21.1315   -18.3873 CH2           1 RES     
     587 CH2          8.0527    20.4263   -19.6028 CH2           1 RES     
     588 CH2          9.1051    20.2862   -20.7183 CH2           1 RES     
     589 CH2          8.4749    19.5810   -21.9338 CH2           1 RES     
     590 CH2          9.5273    19.4408   -23.0494 CH2           1 RES     
     591 CH2          8.8972    18.7356   -24.2648 CH2           1 RES     
     592 CH2          9.9495    18.5955   -25.3804 CH2           1 RES     
     593 CH2          9.3194    17.8903   -26.5958 CH2           1 RES     
     594 CH3         10.3239    17.7565   -27.6607 CH3           1 RES     
     595 CH3         32.8634    27.3861     0.0000 CH3           1 RES     
     596 CH3         31.9932    28.6458     1.7858 CH3           1 RES     
     597 CH3         34.1260    28.6887     1.3040 CH3           1 RES     
     598 NL          32.9051    28.5645     0.8091 NL            1 RES     
     599 CH2         32.8142    29.6721    -0.0295 CH2           1 RES     
     600 CH2         31.3886    29.4974    -0.5853 CH2           1 RES     
     601 OA          31.2211    31.3163    -4.0374 OA            1 RES     
     602 P           31.5337    30.1461    -2.9920 P             1 RES     
     603 OM          30.6684    28.8785    -3.4442 OM            1 RES     
     604 OM          33.1164    29.9134    -3.0178 OM            1 RES     
     605 OA          31.0844    30.6050    -1.5265 OA            1 RES     
     606 CH2         31.6499    30.8564    -5.3827 CH2           1 RES     
     607 CH1         31.3640    31.9597    -6.4184 CH1           1 RES     
     608 OE          32.6226    32.3686    -7.0584 OE            1 RES     
     609 C           32.1442    31.9822    -8.4265 C             1 RES     
     610 O           31.0359    31.5067    -8.6685 O             1 RES     
     611 CH2         33.3019    32.1101    -9.2125 CH2           1 RES     
     612 CH2         32.8299    31.5797   -10.5790 CH2           1 RES     
     613 CH2         34.0327    31.4812   -11.5357 CH2           1 RES     
     614 CH2         33.5606    30.9508   -12.9022 CH2           1 RES     
     615 CH2         34.7634    30.8523   -13.8588 CH2           1 RES     
     616 CH2         34.2913    30.3219   -15.2253 CH2           1 RES     
     617 CH2         35.4942    30.2235   -16.1820 CH2           1 RES     
     618 CH2         35.0221    29.6930   -17.5485 CH2           1 RES     
     619 CH2         36.2249    29.5946   -18.5051 CH2           1 RES     
     620 CH2         35.7528    29.0641   -19.8716 CH2           1 RES     
     621 CH2         36.9557    28.9657   -20.8282 CH2           1 RES     
     622 CH2         36.4836    28.4352   -22.1948 CH2           1 RES     
     623 CH2         37.6864    28.3368   -23.1514 CH2           1 RES     
     624 CH2         37.2143    27.8063   -24.5179 CH2           1 RES     
     625 CH2         38.4172    27.7079   -25.4745 CH2           1 RES     
     626 CH2         37.9451    27.1774   -26.8411 CH2           1 RES     
     627 CH3         39.0932    27.0834   -27.7542 CH3           1 RES     
     628 CH2         30.3950    31.4210    -7.4874 CH2           1 RES     
     629 OE          29.1009    31.1275    -6.8682 OE            1 RES     
     630 C           28.3697    30.6797    -8.0990 C             1 RES     
     631 O           27.1966    30.3104    -8.1168 O             1 RES     
     632 CH2         29.3896    30.6109    -9.0633 CH2           1 RES     
     633 CH2         28.6512    30.0200   -10.2787 CH2           1 RES     
     634 CH2         29.6657    29.7072   -11.3943 CH2           1 RES     
     635 CH2         28.9274    29.1163   -12.6097 CH2           1 RES     
     636 CH2         29.9419    28.8036   -13.7253 CH2           1 RES     
     637 CH2         29.2036    28.2127   -14.9407 CH2           1 RES     
     638 CH2         30.2181    27.8999   -16.0563 CH2           1 RES     
     639 CH2         29.4797    27.3090   -17.2717 CH2           1 RES     
     640 CH2         30.4943    26.9963   -18.3873 CH2           1 RES     
     641 CH2         29.7559    26.4053   -19.6028 CH2           1 RES     
     642 CH2         30.7704    26.0926   -20.7183 CH2           1 RES     
     643 CH2         30.0321    25.5017   -21.9338 CH2           1 RES     
     644 CH2         31.0466    25.1890   -23.0494 CH2           1 RES     
     645 CH2         30.3083    24.5980   -24.2648 CH2           1 RES     
     646 CH2         31.3228    24.2853   -25.3804 CH2           1 RES     
     647 CH2         30.5844    23.6944   -26.5958 CH2           1 RES     
     648 CH3         31.5528    23.3959   -27.6607 CH3           1 RES     
     649 CH3          0.0000    38.3406     0.0000 CH3           1 RES     
     650 CH3         -0.9067    39.5743     1.7858 CH3           1 RES     
     651 CH3          1.2240    39.6795     1.3040 CH3           1 RES     
     652 NL           0.0073    39.5196     0.8091 NL            1 RES     
     653 CH2         -0.1160    40.6241    -0.0295 CH2           1 RES     
     654 CH2         -1.5359    40.4078    -0.5853 CH2           1 RES     
     655 OA          -1.7565    42.2211    -4.0374 OA            1 RES     
     656 P           -1.4099    41.0605    -2.9920 P             1 RES     
     657 OM          -2.2377    39.7682    -3.4442 OM            1 RES     
     658 OM           0.1790    40.8742    -3.0178 OM            1 RES     
     659 OA          -1.8724    41.5061    -1.5265 OA            1 RES     
     660 CH2         -1.3145    41.7739    -5.3827 CH2           1 RES     
     661 CH1         -1.6325    42.8683    -6.4184 CH1           1 RES     
     662 OE          -0.3864    43.3138    -7.0584 OE            1 RES     
     663 C           -0.8533    42.9136    -8.4265 C             1 RES     
     664 O           -1.9472    42.4059    -8.6685 O             1 RES     
     665 CH2          0.3002    43.0754    -9.2125 CH2           1 RES     
     666 CH2         -0.1562    42.5314   -10.5790 CH2           1 RES     
     667 CH2          1.0490    42.4682   -11.5357 CH2           1 RES     
     668 CH2          0.5927    41.9241   -12.9022 CH2           1 RES     
     669 CH2          1.7979    41.8609   -13.8588 CH2           1 RES     
     670 CH2          1.3415    41.3169   -15.2253 CH2           1 RES     
     671 CH2          2.5467    41.2536   -16.1820 CH2           1 RES     
     672 CH2          2.0903    40.7096   -17.5485 CH2           1 RES     
     673 CH2          3.2955    40.6464   -18.5051 CH2           1 RES     
     674 CH2          2.8392    40.1024   -19.8716 CH2           1 RES     
     675 CH2          4.0444    40.0391   -20.8282 CH2           1 RES     
     676 CH2          3.5880    39.4951   -22.1948 CH2           1 RES     
     677 CH2          4.7932    39.4319   -23.1514 CH2           1 RES     
     678 CH2          4.3368    38.8879   -24.5179 CH2           1 RES     
     679 CH2          5.5420    38.8246   -25.4745 CH2           1 RES     
     680 CH2          5.0857    38.2806   -26.8411 CH2           1 RES     
     681 CH3          6.2361    38.2202   -27.7542 CH3           1 RES     
     682 CH2         -2.5853    42.3016    -7.4874 CH2           1 RES     
     683 OE          -3.8703    41.9703    -6.8682 OE            1 RES     
     684 C           -4.5880    41.5013    -8.0990 C             1 RES     
     685 O           -5.7498    41.0978    -8.1168 O             1 RES     
     686 CH2         -3.5666    41.4624    -9.0633 CH2           1 RES     
     687 CH2         -4.2874    40.8501   -10.2787 CH2           1 RES     
     688 CH2         -3.2641    40.5672   -11.3943 CH2           1 RES     
     689 CH2         -3.9849    39.9549   -12.6097 CH2           1 RES     
     690 CH2         -2.9616    39.6720   -13.7253 CH2           1 RES     
     691 CH2         -3.6824    39.0597   -14.9407 CH2           1 RES     
     692 CH2         -2.6592    38.7768   -16.0563 CH2           1 RES     
     693 CH2         -3.3799    38.1645   -17.2717 CH2           1 RES     
     694 CH2         -2.3567    37.8816   -18.3873 CH2           1 RES     
     695 CH2         -3.0774    37.2693   -19.6028 CH2           1 RES     
     696 CH2         -2.0542    36.9864   -20.7183 CH2           1 RES     
     697 CH2         -2.7749    36.3741   -21.9338 CH2           1 RES     
     698 CH2         -1.7517    36.0912   -23.0494 CH2           1 RES     
     699 CH2         -2.4724    35.4789   -24.2648 CH2           1 RES     
     700 CH2         -1.4492    35.1960   -25.3804 CH2           1 RES     
     701 CH2         -2.1700    34.5837   -26.5958 CH2           1 RES     
     702 CH3         -1.1932    34.3137   -27.6607 CH3           1 RES     
     703 CH3         10.9545    10.9545     0.0000 CH3           1 RES     
     704 CH3          9.8865    12.0515     1.7858 CH3           1 RES     
     705 CH3         11.9823    12.4492     1.3040 CH3           1 RES     
     706 NL          10.7993    12.1233     0.8091 NL            1 RES     
     707 CH2         10.5249    13.2002    -0.0295 CH2           1 RES     
     708 CH2          9.1484    12.7904    -0.5853 CH2           1 RES     
     709 OA           8.6801    14.5560    -4.0374 OA            1 RES     
     710 P            9.1833    13.4542    -2.9920 P             1 RES     
     711 OM           8.5414    12.0601    -3.4442 OM            1 RES     
     712 OM          10.7828    13.4886    -3.0178 OM            1 RES     
     713 OA           8.6638    13.8318    -1.5265 OA            1 RES     
     714 CH2          9.1796    14.1740    -5.3827 CH2           1 RES     
     715 CH1          8.7137    15.2141    -6.4184 CH1           1 RES     
     716 OE           9.8866    15.8271    -7.0584 OE            1 RES     
     717 C            9.4793    15.3663    -8.4265 C             1 RES     
     718 O            8.4658    14.7128    -8.6685 O             1 RES     
     719 CH2         10.5995    15.6855    -9.2125 CH2           1 RES     
     720 CH2         10.2225    15.0838   -10.5790 CH2           1 RES     
     721 CH2         11.4249    15.1872   -11.5357 CH2           1 RES     
     722 CH2         11.0478    14.5855   -12.9022 CH2           1 RES     
     723 CH2         12.2502    14.6889   -13.8588 CH2           1 RES     
     724 CH2         11.8732    14.0872   -15.2253 CH2           1 RES     
     725 CH2         13.0756    14.1906   -16.1820 CH2           1 RES     
     726 CH2         12.6985    13.5889   -17.5485 CH2           1 RES     
     727 CH2         13.9009    13.6923   -18.5051 CH2           1 RES     
     728 CH2         13.5238    13.0906   -19.8716 CH2           1 RES     
     729 CH2         14.7263    13.1940   -20.8282 CH2           1 RES     
     730 CH2         14.3492    12.5923   -22.1948 CH2           1 RES     
     731 CH2         15.5516    12.6957   -23.1514 CH2           1 RES     
     732 CH2         15.1745    12.0940   -24.5179 CH2           1 RES     
     733 CH2         16.3769    12.1974   -25.4745 CH2           1 RES     
     734 CH2         15.9999    11.5957   -26.8411 CH2           1 RES     
     735 CH3         17.1476    11.6944   -27.7542 CH3           1 RES     
     736 CH2          7.8481    14.5215    -7.4874 CH2           1 RES     
     737 OE           6.6210    14.0164    -6.8682 OE            1 RES     
     738 C            5.9747    13.4530    -8.0990 C             1 RES     
     739 O            4.8796    12.8933    -8.1168 O             1 RES     
     740 CH2          6.9918    13.5551    -9.0633 CH2           1 RES     
     741 CH2          6.3623    12.8494   -10.2787 CH2           1 RES     
     742 CH2          7.4147    12.7101   -11.3943 CH2           1 RES     
     743 CH2          6.7852    12.0044   -12.6097 CH2           1 RES     
     744 CH2          7.8376    11.8652   -13.7253 CH2           1 RES     
     745 CH2          7.2081    11.1594   -14.9407 CH2           1 RES     
     746 CH2          8.2606    11.0202   -16.0563 CH2           1 RES     
     747 CH2          7.6310    10.3144   -17.2717 CH2           1 RES     
     748 CH2          8.6835    10.1752   -18.3873 CH2           1 RES     
     749 CH2          8.0540     9.4695   -19.6028 CH2           1 RES     
     750 CH2          9.1064     9.3302   -20.7183 CH2           1 RES     
     751 CH2          8.4769     8.6245   -21.9338 CH2           1 RES     
     752 CH2          9.5293     8.4852   -23.0494 CH2           1 RES     
     753 CH2          8.8998     7.7795   -24.2648 CH2           1 RES     
     754 CH2          9.9523     7.6402   -25.3804 CH2           1 RES     
     755 CH2          9.3227     6.9345   -26.5958 CH2           1 RES     
     756 CH3         10.3273     6.8016   -27.6607 CH3           1 RES     
     757 CH3         38.3406    38.3406     0.0000 CH3           1 RES     
     758 CH3         37.2765    39.4414     1.7858 CH3           1 RES     
     759 CH3         39.3738    39.8317     1.3040 CH3           1 RES     
     760 NL          38.1896    39.5099     0.8091 NL            1 RES     
     761 CH2         37.9191    40.5879    -0.0295 CH2           1 RES     
     762 CH2         36.5411    40.1830    -0.5853 CH2           1 RES     
     763 OA          36.0791    41.9502    -4.0374 OA            1 RES     
     764 P           36.5784    40.8467    -2.9920 P             1 RES     
     765 OM          35.9315    39.4549    -3.4442 OM            1 RES     
     766 OM          38.1779    40.8753    -3.0178 OM            1 RES     
     767 OA          36.0602    41.2261    -1.5265 OA            1 RES     
     768 CH2         36.5772    41.5664    -5.3827 CH2           1 RES     
     769 CH1         36.1151    42.6082    -6.4184 CH1           1 RES     
     770 OE          37.2901    43.2170    -7.0584 OE            1 RES     
     771 C           36.8812    42.7577    -8.4265 C             1 RES     
     772 O           35.8653    42.1078    -8.6685 O             1 RES     
     773 CH2         38.0025    43.0729    -9.2125 CH2           1 RES     
     774 CH2         37.6233    42.4725   -10.5790 CH2           1 RES     
     775 CH2         38.8261    42.5716   -11.5357 CH2           1 RES     
     776 CH2         38.4469    41.9713   -12.9022 CH2           1 RES     
     777 CH2         39.6497    42.0704   -13.8588 CH2           1 RES     
     778 CH2         39.2705    41.4700   -15.2253 CH2           1 RES     
     779 CH2         40.4732    41.5691   -16.1820 CH2           1 RES     
     780 CH2         40.0940    40.9688   -17.5485 CH2           1 RES     
     781 CH2         41.2968    41.0679   -18.5051 CH2           1 RES     
     782 CH2         40.9176    40.4675   -19.8716 CH2           1 RES     
     783 CH2         42.1204    40.5666   -20.8282 CH2           1 RES     
     784 CH2         41.7412    39.9663   -22.1948 CH2           1 RES     
     785 CH2         42.9439    40.0654   -23.1514 CH2           1 RES     
     786 CH2         42.5647    39.4650   -24.5179 CH2           1 RES     
     787 CH2         43.7675    39.5641   -25.4745 CH2           1 RES     
     788 CH2         43.3883    38.9638   -26.8411 CH2           1 RES     
     789 CH3         44.5364    39.0584   -27.7542 CH3           1 RES     
     790 CH2         35.2470    41.9187    -7.4874 CH2           1 RES     
     791 OE          34.0181    41.4180    -6.8682 OE            1 RES     
     792 C           33.3698    40.8569    -8.0990 C             1 RES     
     793 O           32.2727    40.3011    -8.1168 O             1 RES     
     794 CH2         34.3872    40.9554    -9.0633 CH2           1 RES     
     795 CH2         33.7552    40.2519   -10.2787 CH2           1 RES     
     796 CH2         34.8071    40.1089   -11.3943 CH2           1 RES     
     797 CH2         34.1751    39.4054   -12.6097 CH2           1 RES     
     798 CH2         35.2270    39.2624   -13.7253 CH2           1 RES     
     799 CH2         34.5950    38.5589   -14.9407 CH2           1 RES     
     800 CH2         35.6469    38.4159   -16.0563 CH2           1 RES     
     801 CH2         35.0149    37.7124   -17.2717 CH2           1 RES     
     802 CH2         36.0668    37.5694   -18.3873 CH2           1 RES     
     803 CH2         35.4348    36.8660   -19.6028 CH2           1 RES     
     804 CH2         36.4867    36.7229   -20.7183 CH2           1 RES     
     805 CH2         35.8547    36.0195   -21.9338 CH2           1 RES     
     806 CH2         36.9066    35.8764   -23.0494 CH2           1 RES     
     807 CH2         36.2746    35.1730   -24.2648 CH2           1 RES     
     808 CH2         37.3265    35.0300   -25.3804 CH2           1 RES     
     809 CH2         36.6945    34.3265   -26.5958 CH2           1 RES     
     810 CH3         37.6986    34.1900   -27.6607 CH3           1 RES     
     811 CH3         21.9089    32.8634     0.0000 CH3           1 RES     
     812 CH3         20.7823    33.9001     1.7858 CH3           1 RES     
     813 CH3         22.8532    34.4123     1.3040 CH3           1 RES     
     814 NL          21.6898    34.0219     0.8091 NL            1 RES     
     815 CH2         21.3567    35.0822    -0.0295 CH2           1 RES     
     816 CH2         20.0048    34.5974    -0.5853 CH2           1 RES     
     817 OA          19.4403    36.3346    -4.0374 OA            1 RES     
     818 P           20.0032    35.2621    -2.9920 P             1 RES     
     819 OM          19.4388    33.8349    -3.4442 OM            1 RES     
     820 OM          21.5983    35.3842    -3.0178 OM            1 RES     
     821 OA          19.4638    35.6106    -1.5265 OA            1 RES     
     822 CH2         19.9599    35.9806    -5.3827 CH2           1 RES     
     823 CH1         19.4377    36.9936    -6.4184 CH1           1 RES     
     824 OE          20.5752    37.6700    -7.0584 OE            1 RES     
     825 C           20.1937    37.1876    -8.4265 C             1 RES     
     826 O           19.2176    36.4794    -8.6685 O             1 RES     
     827 CH2         21.2948    37.5678    -9.2125 CH2           1 RES     
     828 CH2         20.9513    36.9463   -10.5790 CH2           1 RES     
     829 CH2         22.1462    37.1155   -11.5357 CH2           1 RES     
     830 CH2         21.8028    36.4940   -12.9022 CH2           1 RES     
     831 CH2         22.9977    36.6633   -13.8588 CH2           1 RES     
     832 CH2         22.6542    36.0418   -15.2253 CH2           1 RES     
     833 CH2         23.8491    36.2110   -16.1820 CH2           1 RES     
     834 CH2         23.5057    35.5895   -17.5485 CH2           1 RES     
     835 CH2         24.7006    35.7588   -18.5051 CH2           1 RES     
     836 CH2         24.3572    35.1373   -19.8716 CH2           1 RES     
     837 CH2         25.5521    35.3066   -20.8282 CH2           1 RES     
     838 CH2         25.2086    34.6851   -22.1948 CH2           1 RES     
     839 CH2         26.4035    34.8543   -23.1514 CH2           1 RES     
     840 CH2         26.0601    34.2328   -24.5179 CH2           1 RES     
     841 CH2         27.2550    34.4021   -25.4745 CH2           1 RES     
     842 CH2         26.9115    33.7806   -26.8411 CH2           1 RES     
     843 CH3         28.0521    33.9421   -27.7542 CH3           1 RES     
     844 CH2         18.6114    36.2545    -7.4874 CH2           1 RES     
     845 OE          17.4139    35.6828    -6.8682 OE            1 RES     
     846 C           16.7995    35.0848    -8.0990 C             1 RES     
     847 O           15.7368    34.4658    -8.1168 O             1 RES     
     848 CH2         17.8094    35.2426    -9.0633 CH2           1 RES     
     849 CH2         17.2196    34.5033   -10.2787 CH2           1 RES     
     850 CH2         18.2781    34.4221   -11.3943 CH2           1 RES     
     851 CH2         17.6883    33.6828   -12.6097 CH2           1 RES     
     852 CH2         18.7468    33.6016   -13.7253 CH2           1 RES     
     853 CH2         18.1570    32.8624   -14.9407 CH2           1 RES     
     854 CH2         19.2155    32.7811   -16.0563 CH2           1 RES     
     855 CH2         18.6256    32.0419   -17.2717 CH2           1 RES     
     856 CH2         19.6841    31.9606   -18.3873 CH2           1 RES     
     857 CH2         19.0943    31.2214   -19.6028 CH2           1 RES     
     858 CH2         20.1528    31.1401   -20.7183 CH2           1 RES     
     859 CH2         19.5630    30.4009   -21.9338 CH2           1 RES     
     860 CH2         20.6215    30.3196   -23.0494 CH2           1 RES     
     861 CH2         20.0317    29.5804   -24.2648 CH2           1 RES     
     862 CH2         21.0902    29.4991   -25.3804 CH2           1 RES     
     863 CH2         20.5003    28.7599   -26.5958 CH2           1 RES     
     864 CH3         21.5107    28.6823   -27.6607 CH3           1 RES     
     865 CH3          5.4772     5.4772     0.0000 CH3           1 RES     
     866 CH3          4.5778     6.7162     1.7858 CH3           1 RES     
     867 CH3          6.7090     6.8089     1.3040 CH3           1 RES     
     868 NL           5.4914     6.6562     0.8091 NL            1 RES     
     869 CH2          5.3746     7.7614    -0.0295 CH2           1 RES     
     870 CH2          3.9535     7.5535    -0.5853 CH2           1 RES     
     871 OA           3.7435     9.3679    -4.0374 OA            1 RES     
     872 P            4.0833     8.2054    -2.9920 P             1 RES     
     873 OM           3.2480     6.9179    -3.4442 OM            1 RES     
     874 OM           5.6711     8.0097    -3.0178 OM            1 RES     
     875 OA           3.6234     8.6537    -1.5265 OA            1 RES     
     876 CH2          4.1829     8.9182    -5.3827 CH2           1 RES     
     877 CH1          3.8713    10.0144    -6.4184 CH1           1 RES     
     878 OE           5.1200    10.4527    -7.0584 OE            1 RES     
     879 C            4.6507    10.0552    -8.4265 C             1 RES     
     880 O            3.5539     9.5539    -8.6685 O             1 RES     
     881 CH2          5.8052    10.2102    -9.2125 CH2           1 RES     
     882 CH2          5.3457     9.6689   -10.5790 CH2           1 RES     
     883 CH2          6.5505     9.5986   -11.5357 CH2           1 RES     
     884 CH2          6.0909     9.0572   -12.9022 CH2           1 RES     
     885 CH2          7.2957     8.9869   -13.8588 CH2           1 RES     
     886 CH2          6.8362     8.4456   -15.2253 CH2           1 RES     
     887 CH2          8.0410     8.3753   -16.1820 CH2           1 RES     
     888 CH2          7.5814     7.8340   -17.5485 CH2           1 RES     
     889 CH2          8.7862     7.7637   -18.5051 CH2           1 RES     
     890 CH2          8.3267     7.2223   -19.8716 CH2           1 RES     
     891 CH2          9.5315     7.1520   -20.8282 CH2           1 RES     
     892 CH2          9.0719     6.6107   -22.1948 CH2           1 RES     
     893 CH2         10.2767     6.5404   -23.1514 CH2           1 RES     
     894 CH2          9.8172     5.9991   -24.5179 CH2           1 RES     
     895 CH2         11.0220     5.9288   -25.4745 CH2           1 RES     
     896 CH2         10.5625     5.3874   -26.8411 CH2           1 RES     
     897 CH3         11.7125     5.3203   -27.7542 CH3           1 RES     
     898 CH2          2.9152     9.4533    -7.4874 CH2           1 RES     
     899 OE           1.6283     9.1296    -6.8682 OE            1 RES     
     900 C            0.9078     8.6649    -8.0990 C             1 RES     
     901 O           -0.2563     8.2682    -8.1168 O             1 RES     
     902 CH2          1.9290     8.6199    -9.0633 CH2           1 RES     
     903 CH2          1.2047     8.0118   -10.2787 CH2           1 RES     
     904 CH2          2.2262     7.7229   -11.3943 CH2           1 RES     
     905 CH2          1.5019     7.1149   -12.6097 CH2           1 RES     
     906 CH2          2.5234     6.8260   -13.7253 CH2           1 RES     
     907 CH2          1.7991     6.2179   -14.9407 CH2           1 RES     
     908 CH2          2.8207     5.9290   -16.0563 CH2           1 RES     
     909 CH2          2.0963     5.3210   -17.2717 CH2           1 RES     
     910 CH2          3.1179     5.0321   -18.3873 CH2           1 RES     
     911 CH2          2.3936     4.4240   -19.6028 CH2           1 RES     
     912 CH2          3.4151     4.1351   -20.7183 CH2           1 RES     
     913 CH2          2.6908     3.5271   -21.9338 CH2           1 RES     
     914 CH2          3.7124     3.2382   -23.0494 CH2           1 RES     
     915 CH2          2.9880     2.6301   -24.2648 CH2           1 RES     
     916 CH2          4.0096     2.3412   -25.3804 CH2           1 RES     
     917 CH2          3.2853     1.7332   -26.5958 CH2           1 RES     
     918 CH3          4.2604     1.4574   -27.6607 CH3           1 RES     
     919 CH3         38.3406     5.4772     0.0000 CH3           1 RES     
     920 CH3         37.3439     6.6394     1.7858 CH3           1 RES     
     921 CH3         39.4607     6.9042     1.3040 CH3           1 RES     
     922 NL          38.2594     6.6535     0.8091 NL            1 RES     
     923 CH2         38.0535     7.7456    -0.0295 CH2           1 RES     
     924 CH2         36.6539     7.4234    -0.5853 CH2           1 RES     
     925 OA          36.2979     9.2150    -4.0374 OA            1 RES     
     926 P           36.7306     8.0837    -2.9920 P             1 RES     
     927 OM          36.0021     6.7329    -3.4442 OM            1 RES     
     928 OM          38.3290     8.0171    -3.0178 OM            1 RES     
     929 OA          36.2360     8.4933    -1.5265 OA            1 RES     
     930 CH2         36.7722     8.8023    -5.3827 CH2           1 RES     
     931 CH1         36.3729     9.8697    -6.4184 CH1           1 RES     
     932 OE          37.5821    10.4075    -7.0584 OE            1 RES     
     933 C           37.1466     9.9734    -8.4265 C             1 RES     
     934 O           36.0939     9.3850    -8.6685 O             1 RES     
     935 CH2         38.2847    10.2212    -9.2125 CH2           1 RES     
     936 CH2         37.8704     9.6445   -10.5790 CH2           1 RES     
     937 CH2         39.0770     9.6719   -11.5357 CH2           1 RES     
     938 CH2         38.6627     9.0951   -12.9022 CH2           1 RES     
     939 CH2         39.8693     9.1225   -13.8588 CH2           1 RES     
     940 CH2         39.4550     8.5458   -15.2253 CH2           1 RES     
     941 CH2         40.6615     8.5731   -16.1820 CH2           1 RES     
     942 CH2         40.2473     7.9964   -17.5485 CH2           1 RES     
     943 CH2         41.4538     8.0238   -18.5051 CH2           1 RES     
     944 CH2         41.0396     7.4471   -19.8716 CH2           1 RES     
     945 CH2         42.2461     7.4744   -20.8282 CH2           1 RES     
     946 CH2         41.8318     6.8977   -22.1948 CH2           1 RES     
     947 CH2         43.0384     6.9251   -23.1514 CH2           1 RES     
     948 CH2         42.6241     6.3483   -24.5179 CH2           1 RES     
     949 CH2         43.8307     6.3757   -25.4745 CH2           1 RES     
     950 CH2         43.4164     5.7990   -26.8411 CH2           1 RES     
     951 CH3         44.5681     5.8251   -27.7542 CH3           1 RES     
     952 CH2         35.4654     9.2331    -7.4874 CH2           1 RES     
     953 OE          34.2089     8.8063    -6.8682 OE            1 RES     
     954 C           33.5283     8.2849    -8.0990 C             1 RES     
     955 O           32.4001     7.7953    -8.1168 O             1 RES     
     956 CH2         34.5498     8.3226    -9.0633 CH2           1 RES     
     957 CH2         33.8770     7.6580   -10.2787 CH2           1 RES     
     958 CH2         34.9186     7.4527   -11.3943 CH2           1 RES     
     959 CH2         34.2458     6.7880   -12.6097 CH2           1 RES     
     960 CH2         35.2874     6.5827   -13.7253 CH2           1 RES     
     961 CH2         34.6146     5.9180   -14.9407 CH2           1 RES     
     962 CH2         35.6562     5.7127   -16.0563 CH2           1 RES     
     963 CH2         34.9834     5.0481   -17.2717 CH2           1 RES     
     964 CH2         36.0250     4.8427   -18.3873 CH2           1 RES     
     965 CH2         35.3522     4.1781   -19.6028 CH2           1 RES     
     966 CH2         36.3938     3.9727   -20.7183 CH2           1 RES     
     967 CH2         35.7210     3.3081   -21.9338 CH2           1 RES     
     968 CH2         36.7626     3.1028   -23.0494 CH2           1 RES     
     969 CH2         36.0898     2.4381   -24.2648 CH2           1 RES     
     970 CH2         37.1314     2.2328   -25.3804 CH2           1 RES     
     971 CH2         36.4586     1.5682   -26.5958 CH2           1 RES     
     972 CH3         37.4528     1.3722   -27.6607 CH3           1 RES     
     973 CH3         10.9545    27.3861     0.0000 CH3           1 RES     
     974 CH3         10.0206    28.5993     1.7858 CH3           1 RES     
     975 CH3         12.1484    28.7519     1.3040 CH3           1 RES     
     976 NL          10.9355    28.5650     0.8091 NL            1 RES     
     977 CH2         10.7877    29.6665    -0.0295 CH2           1 RES     
     978 CH2          9.3730    29.4187    -0.5853 CH2           1 RES     
     979 OA           9.1121    31.2266    -4.0374 OA            1 RES     
     980 P            9.4845    30.0740    -2.9920 P             1 RES     
     981 OM           8.6856    28.7636    -3.4442 OM            1 RES     
     982 OM          11.0771    29.9231    -3.0178 OM            1 RES     
     983 OA           9.0121    30.5092    -1.5265 OA            1 RES     
     984 CH2          9.5640    30.7894    -5.3827 CH2           1 RES     
     985 CH1          9.2217    31.8764    -6.4184 CH1           1 RES     
     986 OE          10.4576    32.3496    -7.0584 OE            1 RES     
     987 C            9.9997    31.9391    -8.4265 C             1 RES     
     988 O            8.9173    31.4072    -8.6685 O             1 RES     
     989 CH2         11.1493    32.1265    -9.2125 CH2           1 RES     
     990 CH2         10.7052    31.5724   -10.5790 CH2           1 RES     
     991 CH2         11.9115    31.5360   -11.5357 CH2           1 RES     
     992 CH2         11.4673    30.9820   -12.9022 CH2           1 RES     
     993 CH2         12.6736    30.9455   -13.8588 CH2           1 RES     
     994 CH2         12.2295    30.3915   -15.2253 CH2           1 RES     
     995 CH2         13.4358    30.3551   -16.1820 CH2           1 RES     
     996 CH2         12.9916    29.8011   -17.5485 CH2           1 RES     
     997 CH2         14.1979    29.7646   -18.5051 CH2           1 RES     
     998 CH2         13.7538    29.2106   -19.8716 CH2           1 RES     
     999 CH2         14.9600    29.1742   -20.8282 CH2           1 RES     
    1000 CH2         14.5159    28.6201   -22.1948 CH2           1 RES     
    1001 CH2         15.7222    28.5837   -23.1514 CH2           1 RES     
    1002 CH2         15.2780    28.0297   -24.5179 CH2           1 RES     
    1003 CH2         16.4843    27.9933   -25.4745 CH2           1 RES     
    1004 CH2         16.0402    27.4392   -26.8411 CH2           1 RES     
    1005 CH3         17.1917    27.4045   -27.7542 CH3           1 RES     
    1006 CH2          8.2817    31.2887    -7.4874 CH2           1 RES     
    1007 OE           7.0044    30.9289    -6.8682 OE            1 RES     
    1008 C            6.2973    30.4441    -8.0990 C             1 RES     
    1009 O            5.1447    30.0149    -8.1168 O             1 RES     
    1010 CH2          7.3193    30.4279    -9.0633 CH2           1 RES     
    1011 CH2          6.6124    29.7997   -10.2787 CH2           1 RES     
    1012 CH2          7.6416    29.5396   -11.3943 CH2           1 RES     
    1013 CH2          6.9347    28.9115   -12.6097 CH2           1 RES     
    1014 CH2          7.9639    28.6514   -13.7253 CH2           1 RES     
    1015 CH2          7.2570    28.0232   -14.9407 CH2           1 RES     
    1016 CH2          8.2863    27.7631   -16.0563 CH2           1 RES     
    1017 CH2          7.5793    27.1350   -17.2717 CH2           1 RES     
    1018 CH2          8.6086    26.8749   -18.3873 CH2           1 RES     
    1019 CH2          7.9016    26.2467   -19.6028 CH2           1 RES     
    1020 CH2          8.9309    25.9866   -20.7183 CH2           1 RES     
    1021 CH2          8.2239    25.3585   -21.9338 CH2           1 RES     
    1022 CH2          9.2532    25.0984   -23.0494 CH2           1 RES     
    1023 CH2          8.5462    24.4702   -24.2648 CH2           1 RES     
    1024 CH2          9.5755    24.2101   -25.3804 CH2           1 RES     
    1025 CH2          8.8685    23.5820   -26.5958 CH2           1 RES     
    1026 CH3          9.8510    23.3337   -27.6607 CH3           1 RES     
    1027 CH3          0.0000    16.4317     0.0000 CH3           1 RES     
    1028 CH3         -1.1329    17.4615     1.7858 CH3           1 RES     
    1029 CH3          0.9348    17.9863     1.3040 CH3           1 RES     
    1030 NL          -0.2262    17.5888     0.8091 NL            1 RES     
    1031 CH2         -0.5657    18.6471    -0.0295 CH2           1 RES     
    1032 CH2         -1.9146    18.1541    -0.5853 CH2           1 RES     
    1033 OA          -2.4898    19.8878    -4.0374 OA            1 RES     
    1034 P           -1.9203    18.8188    -2.9920 P             1 RES     
    1035 OM          -2.4760    17.3881    -3.4442 OM            1 RES     
    1036 OM          -0.3259    18.9506    -3.0178 OM            1 RES     
    1037 OA          -2.4619    19.1640    -1.5265 OA            1 RES     
    1038 CH2         -1.9680    19.5369    -5.3827 CH2           1 RES     
    1039 CH1         -2.4963    20.5467    -6.4184 CH1           1 RES     
    1040 OE          -1.3631    21.2301    -7.0584 OE            1 RES     
    1041 C           -1.7415    20.7454    -8.4265 C             1 RES     
    1042 O           -2.7133    20.0312    -8.6685 O             1 RES     
    1043 CH2         -0.6428    21.1323    -9.2125 CH2           1 RES     
    1044 CH2         -0.9825    20.5087   -10.5790 CH2           1 RES     
    1045 CH2          0.2114    20.6852   -11.5357 CH2           1 RES     
    1046 CH2         -0.1283    20.0616   -12.9022 CH2           1 RES     
    1047 CH2          1.0656    20.2382   -13.8588 CH2           1 RES     
    1048 CH2          0.7259    19.6146   -15.2253 CH2           1 RES     
    1049 CH2          1.9198    19.7911   -16.1820 CH2           1 RES     
    1050 CH2          1.5801    19.1676   -17.5485 CH2           1 RES     
    1051 CH2          2.7740    19.3441   -18.5051 CH2           1 RES     
    1052 CH2          2.4343    18.7205   -19.8716 CH2           1 RES     
    1053 CH2          3.6282    18.8971   -20.8282 CH2           1 RES     
    1054 CH2          3.2885    18.2735   -22.1948 CH2           1 RES     
    1055 CH2          4.4824    18.4500   -23.1514 CH2           1 RES     
    1056 CH2          4.1427    17.8265   -24.5179 CH2           1 RES     
    1057 CH2          5.3366    18.0030   -25.4745 CH2           1 RES     
    1058 CH2          4.9969    17.3794   -26.8411 CH2           1 RES     
    1059 CH3          6.1365    17.5479   -27.7542 CH3           1 RES     
    1060 CH2         -3.3181    19.8026    -7.4874 CH2           1 RES     
    1061 OE          -4.5121    19.2236    -6.8682 OE            1 RES     
    1062 C           -5.1229    18.6219    -8.0990 C             1 RES     
    1063 O           -6.1818    17.9964    -8.1168 O             1 RES     
    1064 CH2         -4.1139    18.7858    -9.0633 CH2           1 RES     
    1065 CH2         -4.6992    18.0430   -10.2787 CH2           1 RES     
    1066 CH2         -3.6402    17.9682   -11.3943 CH2           1 RES     
    1067 CH2         -4.2255    17.2254   -12.6097 CH2           1 RES     
    1068 CH2         -3.1666    17.1506   -13.7253 CH2           1 RES     
    1069 CH2         -3.7519    16.4078   -14.9407 CH2           1 RES     
    1070 CH2         -2.6929    16.3330   -16.0563 CH2           1 RES     
    1071 CH2         -3.2782    15.5902   -17.2717 CH2           1 RES     
    1072 CH2         -2.2192    15.5153   -18.3873 CH2           1 RES     
    1073 CH2         -2.8045    14.7725   -19.6028 CH2           1 RES     
    1074 CH2         -1.7455    14.6977   -20.7183 CH2           1 RES     
    1075 CH2         -2.3309    13.9549   -21.9338 CH2           1 RES     
    1076 CH2         -1.2719    13.8801   -23.0494 CH2           1 RES     
    1077 CH2         -1.8572    13.1373   -24.2648 CH2           1 RES     
    1078 CH2         -0.7982    13.0625   -25.3804 CH2           1 RES     
    1079 CH2         -1.3835    12.3197   -26.5958 CH2           1 RES     
    1080 CH3         -0.3727    12.2483   -27.6607 CH3           1 RES     
    1081 CH3          5.4772    10.9545     0.0000 CH3           1 RES     
    1082 CH3          4.2508    11.8710     1.7858 CH3           1 RES     
    1083 CH3          6.2587    12.5915     1.3040 CH3           1 RES     
    1084 NL           5.1412    12.0846     0.8091 NL            1 RES     
    1085 CH2          4.7018    13.1055    -0.0295 CH2           1 RES     
    1086 CH2          3.4064    12.4854    -0.5853 CH2           1 RES     
    1087 OA           2.6677    14.1560    -4.0374 OA            1 RES     
    1088 P            3.3370    13.1465    -2.9920 P             1 RES     
    1089 OM           2.9210    11.6692    -3.4442 OM            1 RES     
    1090 OM           4.9114    13.4306    -3.0178 OM            1 RES     
    1091 OA           2.7648    13.4383    -1.5265 OA            1 RES     
    1092 CH2          3.2207    13.8568    -5.3827 CH2           1 RES     
    1093 CH1          2.5980    14.8113    -6.4184 CH1           1 RES     
    1094 OE           3.6606    15.6001    -7.0584 OE            1 RES     
    1095 C            3.3303    15.0814    -8.4265 C             1 RES     
    1096 O            2.4315    14.2774    -8.6685 O             1 RES     
    1097 CH2          4.3869    15.5718    -9.2125 CH2           1 RES     
    1098 CH2          4.1085    14.9185   -10.5790 CH2           1 RES     
    1099 CH2          5.2800    15.2087   -11.5357 CH2           1 RES     
    1100 CH2          5.0017    14.5554   -12.9022 CH2           1 RES     
    1101 CH2          6.1731    14.8456   -13.8588 CH2           1 RES     
    1102 CH2          5.8948    14.1923   -15.2253 CH2           1 RES     
    1103 CH2          7.0662    14.4824   -16.1820 CH2           1 RES     
    1104 CH2          6.7879    13.8292   -17.5485 CH2           1 RES     
    1105 CH2          7.9593    14.1193   -18.5051 CH2           1 RES     
    1106 CH2          7.6810    13.4661   -19.8716 CH2           1 RES     
    1107 CH2          8.8524    13.7562   -20.8282 CH2           1 RES     
    1108 CH2          8.5741    13.1029   -22.1948 CH2           1 RES     
    1109 CH2          9.7456    13.3931   -23.1514 CH2           1 RES     
    1110 CH2          9.4672    12.7398   -24.5179 CH2           1 RES     
    1111 CH2         10.6387    13.0300   -25.4745 CH2           1 RES     
    1112 CH2         10.3603    12.3767   -26.8411 CH2           1 RES     
    1113 CH3         11.4785    12.6537   -27.7542 CH3           1 RES     
    1114 CH2          1.8513    13.9919    -7.4874 CH2           1 RES     
    1115 OE           0.7183    13.3011    -6.8682 OE            1 RES     
    1116 C            0.1681    12.6436    -8.0990 C             1 RES     
    1117 O           -0.8261    11.9195    -8.1168 O             1 RES     
    1118 CH2          1.1566    12.9035    -9.0633 CH2           1 RES     
    1119 CH2          0.6452    12.1080   -10.2787 CH2           1 RES     
    1120 CH2          1.7065    12.1350   -11.3943 CH2           1 RES     
    1121 CH2          1.1951    11.3396   -12.6097 CH2           1 RES     
    1122 CH2          2.2563    11.3666   -13.7253 CH2           1 RES     
    1123 CH2          1.7449    10.5711   -14.9407 CH2           1 RES     
    1124 CH2          2.8062    10.5981   -16.0563 CH2           1 RES     
    1125 CH2          2.2948     9.8026   -17.2717 CH2           1 RES     
    1126 CH2          3.3560     9.8297   -18.3873 CH2           1 RES     
    1127 CH2          2.8446     9.0342   -19.6028 CH2           1 RES     
    1128 CH2          3.9059     9.0612   -20.7183 CH2           1 RES     
    1129 CH2          3.3945     8.2657   -21.9338 CH2           1 RES     
    1130 CH2          4.4557     8.2927   -23.0494 CH2           1 RES     
    1131 CH2          3.9443     7.4973   -24.2648 CH2           1 RES     
    1132 CH2          5.0056     7.5243   -25.3804 CH2           1 RES     
    1133 CH2          4.4942     6.7288   -26.5958 CH2           1 RES     
    1134 CH3          5.5072     6.7546   -27.6607 CH3           1 RES     
    1135 CH3         32.8634    32.8634     0.0000 CH3           1 RES     
    1136 CH3         31.7328    33.8958     1.7858 CH3           1 RES     
    1137 CH3         33.8017    34.4159     1.3040 CH3           1 RES     
    1138 NL          32.6398    34.0210     0.8091 NL            1 RES     
    1139 CH2         32.3027    35.0801    -0.0295 CH2           1 RES     
    1140 CH2         30.9527    34.5901    -0.5853 CH2           1 RES     
    1141 OA          30.3815    36.3251    -4.0374 OA            1 RES     
    1142 P           30.9486    35.2548    -2.9920 P             1 RES     
    1143 OM          30.3896    33.8255    -3.4442 OM            1 RES     
    1144 OM          32.5432    35.3830    -3.0178 OM            1 RES     
    1145 OA          30.4078    35.6013    -1.5265 OA            1 RES     
    1146 CH2         30.9025    35.9731    -5.3827 CH2           1 RES     
    1147 CH1         30.3765    36.9841    -6.4184 CH1           1 RES     
    1148 OE          31.5113    37.6649    -7.0584 OE            1 RES     
    1149 C           31.1317    37.1810    -8.4265 C             1 RES     
    1150 O           30.1583    36.4691    -8.6685 O             1 RES     
    1151 CH2         32.2313    37.5654    -9.2125 CH2           1 RES     
    1152 CH2         31.8902    36.9426   -10.5790 CH2           1 RES     
    1153 CH2         33.0845    37.1164   -11.5357 CH2           1 RES     
    1154 CH2         32.7434    36.4936   -12.9022 CH2           1 RES     
    1155 CH2         33.9377    36.6674   -13.8588 CH2           1 RES     
    1156 CH2         33.5966    36.0446   -15.2253 CH2           1 RES     
    1157 CH2         34.7908    36.2184   -16.1820 CH2           1 RES     
    1158 CH2         34.4498    35.5956   -17.5485 CH2           1 RES     
    1159 CH2         35.6440    35.7694   -18.5051 CH2           1 RES     
    1160 CH2         35.3029    35.1466   -19.8716 CH2           1 RES     
    1161 CH2         36.4972    35.3204   -20.8282 CH2           1 RES     
    1162 CH2         36.1561    34.6976   -22.1948 CH2           1 RES     
    1163 CH2         37.3504    34.8714   -23.1514 CH2           1 RES     
    1164 CH2         37.0093    34.2486   -24.5179 CH2           1 RES     
    1165 CH2         38.2035    34.4224   -25.4745 CH2           1 RES     
    1166 CH2         37.8625    33.7996   -26.8411 CH2           1 RES     
    1167 CH3         39.0024    33.9655   -27.7542 CH3           1 RES     
    1168 CH2         29.5530    36.2419    -7.4874 CH2           1 RES     
    1169 OE          28.3577    35.6656    -6.8682 OE            1 RES     
    1170 C           27.7455    35.0653    -8.0990 C             1 RES     
    1171 O           26.6852    34.4423    -8.1168 O             1 RES     
    1172 CH2         28.7549    35.2269    -9.0633 CH2           1 RES     
    1173 CH2         28.1678    34.4855   -10.2787 CH2           1 RES     
    1174 CH2         29.2267    34.4082   -11.3943 CH2           1 RES     
    1175 CH2         28.6396    33.6668   -12.6097 CH2           1 RES     
    1176 CH2         29.6984    33.5895   -13.7253 CH2           1 RES     
    1177 CH2         29.1114    32.8481   -14.9407 CH2           1 RES     
    1178 CH2         30.1702    32.7708   -16.0563 CH2           1 RES     
    1179 CH2         29.5832    32.0294   -17.2717 CH2           1 RES     
    1180 CH2         30.6420    31.9521   -18.3873 CH2           1 RES     
    1181 CH2         30.0550    31.2107   -19.6028 CH2           1 RES     
    1182 CH2         31.1138    31.1334   -20.7183 CH2           1 RES     
    1183 CH2         30.5268    30.3920   -21.9338 CH2           1 RES     
    1184 CH2         31.5856    30.3147   -23.0494 CH2           1 RES     
    1185 CH2         30.9986    29.5732   -24.2648 CH2           1 RES     
    1186 CH2         32.0574    29.4960   -25.3804 CH2           1 RES     
    1187 CH2         31.4704    28.7545   -26.5958 CH2           1 RES     
    1188 CH3         32.4811    28.6808   -27.6607 CH3           1 RES     
    1189 CH3          0.0000    21.9089     0.0000 CH3           1 RES     
    1190 CH3         -0.9179    23.1343     1.7858 CH3           1 RES     
    1191 CH3          1.2117    23.2589     1.3040 CH3           1 RES     
    1192 NL          -0.0034    23.0880     0.8091 NL            1 RES     
    1193 CH2         -0.1368    24.1913    -0.0295 CH2           1 RES     
    1194 CH2         -1.5546    23.9621    -0.5853 CH2           1 RES     
    1195 OA          -1.7918    25.7732    -4.0374 OA            1 RES     
    1196 P           -1.4346    24.6159    -2.9920 P             1 RES     
    1197 OM          -2.2506    23.3160    -3.4442 OM            1 RES     
    1198 OM           0.1560    24.4440    -3.0178 OM            1 RES     
    1199 OA          -1.9011    25.0572    -1.5265 OA            1 RES     
    1200 CH2         -1.3457    25.3301    -5.3827 CH2           1 RES     
    1201 CH1         -1.6737    26.4216    -6.4184 CH1           1 RES     
    1202 OE          -0.4317    26.8784    -7.0584 OE            1 RES     
    1203 C           -0.8949    26.4740    -8.4265 C             1 RES     
    1204 O           -1.9841    25.9563    -8.6685 O             1 RES     
    1205 CH2          0.2571    26.6463    -9.2125 CH2           1 RES     
    1206 CH2         -0.1943    26.0981   -10.5790 CH2           1 RES     
    1207 CH2          1.0114    26.0459   -11.5357 CH2           1 RES     
    1208 CH2          0.5600    25.4977   -12.9022 CH2           1 RES     
    1209 CH2          1.7657    25.4454   -13.8588 CH2           1 RES     
    1210 CH2          1.3144    24.8973   -15.2253 CH2           1 RES     
    1211 CH2          2.5201    24.8450   -16.1820 CH2           1 RES     
    1212 CH2          2.0687    24.2969   -17.5485 CH2           1 RES     
    1213 CH2          3.2744    24.2446   -18.5051 CH2           1 RES     
    1214 CH2          2.8230    23.6965   -19.8716 CH2           1 RES     
    1215 CH2          4.0287    23.6442   -20.8282 CH2           1 RES     
    1216 CH2          3.5773    23.0961   -22.1948 CH2           1 RES     
    1217 CH2          4.7831    23.0438   -23.1514 CH2           1 RES     
    1218 CH2          4.3317    22.4956   -24.5179 CH2           1 RES     
    1219 CH2          5.5374    22.4434   -25.4745 CH2           1 RES     
    1220 CH2          5.0860    21.8952   -26.8411 CH2           1 RES     
    1221 CH3          6.2369    21.8454   -27.7542 CH3           1 RES     
    1222 CH2         -2.6213    25.8462    -7.4874 CH2           1 RES     
    1223 OE          -3.9032    25.5032    -6.8682 OE            1 RES     
    1224 C           -4.6166    25.0278    -8.0990 C             1 RES     
    1225 O           -5.7747    24.6137    -8.1168 O             1 RES     
    1226 CH2         -3.5949    24.9981    -9.0633 CH2           1 RES     
    1227 CH2         -4.3100    24.3793   -10.2787 CH2           1 RES     
    1228 CH2         -3.2843    24.1057   -11.3943 CH2           1 RES     
    1229 CH2         -3.9994    23.4869   -12.6097 CH2           1 RES     
    1230 CH2         -2.9736    23.2133   -13.7253 CH2           1 RES     
    1231 CH2         -3.6888    22.5945   -14.9407 CH2           1 RES     
    1232 CH2         -2.6630    22.3209   -16.0563 CH2           1 RES     
    1233 CH2         -3.3782    21.7021   -17.2717 CH2           1 RES     
    1234 CH2         -2.3524    21.4285   -18.3873 CH2           1 RES     
    1235 CH2         -3.0675    20.8097   -19.6028 CH2           1 RES     
    1236 CH2         -2.0418    20.5361   -20.7183 CH2           1 RES     
    1237 CH2         -2.7569    19.9173   -21.9338 CH2           1 RES     
    1238 CH2         -1.7311    19.6437   -23.0494 CH2           1 RES     
    1239 CH2         -2.4463    19.0249   -24.2648 CH2           1 RES     
    1240 CH2         -1.4205    18.7513   -25.3804 CH2           1 RES     
    1241 CH2         -2.1357    18.1325   -26.5958 CH2           1 RES     
    1242 CH3         -1.1565    17.8713   -27.6607 CH3           1 RES     
    1243 CH3          5.4772    27.3861     0.0000 CH3           1 RES     
    1244 CH3          4.4770    28.5452     1.7858 CH3           1 RES     
    1245 CH3          6.5929    28.8165     1.3040 CH3           1 RES     
    1246 NL           5.3924    28.5621     0.8091 NL            1 RES     
    1247 CH2          5.1832    29.6536    -0.0295 CH2           1 RES     
    1248 CH2          3.7846    29.3271    -0.5853 CH2           1 RES     
    1249 OA           3.4230    31.1176    -4.0374 OA            1 RES     
    1250 P            3.8593    29.9876    -2.9920 P             1 RES     
    1251 OM           3.1349    28.6346    -3.4442 OM            1 RES     
    1252 OM           5.4579    29.9260    -3.0178 OM            1 RES     
    1253 OA           3.3633    30.3957    -1.5265 OA            1 RES     
    1254 CH2          3.8987    30.7063    -5.3827 CH2           1 RES     
    1255 CH1          3.4961    31.7725    -6.4184 CH1           1 RES     
    1256 OE           4.7036    32.3140    -7.0584 OE            1 RES     
    1257 C            4.2694    31.8786    -8.4265 C             1 RES     
    1258 O            3.2185    31.2870    -8.6685 O             1 RES     
    1259 CH2          5.4067    32.1299    -9.2125 CH2           1 RES     
    1260 CH2          4.9943    31.5519   -10.5790 CH2           1 RES     
    1261 CH2          6.2007    31.5830   -11.5357 CH2           1 RES     
    1262 CH2          5.7882    31.0050   -12.9022 CH2           1 RES     
    1263 CH2          6.9947    31.0361   -13.8588 CH2           1 RES     
    1264 CH2          6.5822    30.4581   -15.2253 CH2           1 RES     
    1265 CH2          7.7886    30.4892   -16.1820 CH2           1 RES     
    1266 CH2          7.3762    29.9112   -17.5485 CH2           1 RES     
    1267 CH2          8.5826    29.9423   -18.5051 CH2           1 RES     
    1268 CH2          8.1701    29.3643   -19.8716 CH2           1 RES     
    1269 CH2          9.3766    29.3953   -20.8282 CH2           1 RES     
    1270 CH2          8.9641    28.8173   -22.1948 CH2           1 RES     
    1271 CH2         10.1705    28.8484   -23.1514 CH2           1 RES     
    1272 CH2          9.7581    28.2704   -24.5179 CH2           1 RES     
    1273 CH2         10.9645    28.3015   -25.4745 CH2           1 RES     
    1274 CH2         10.5520    27.7235   -26.8411 CH2           1 RES     
    1275 CH3         11.7036    27.7532   -27.7542 CH3           1 RES     
    1276 CH2          2.5905    31.1331    -7.4874 CH2           1 RES     
    1277 OE           1.3353    30.7025    -6.8682 OE            1 RES     
    1278 C            0.6563    30.1789    -8.0990 C             1 RES     
    1279 O           -0.4704    29.6859    -8.1168 O             1 RES     
    1280 CH2          1.6777    30.2198    -9.0633 CH2           1 RES     
    1281 CH2          1.0070    29.5531   -10.2787 CH2           1 RES     
    1282 CH2          2.0492    29.3510   -11.3943 CH2           1 RES     
    1283 CH2          1.3784    28.6843   -12.6097 CH2           1 RES     
    1284 CH2          2.4206    28.4822   -13.7253 CH2           1 RES     
    1285 CH2          1.7499    27.8155   -14.9407 CH2           1 RES     
    1286 CH2          2.7921    27.6133   -16.0563 CH2           1 RES     
    1287 CH2          2.1214    26.9466   -17.2717 CH2           1 RES     
    1288 CH2          3.1636    26.7445   -18.3873 CH2           1 RES     
    1289 CH2          2.4929    26.0778   -19.6028 CH2           1 RES     
    1290 CH2          3.5351    25.8757   -20.7183 CH2           1 RES     
    1291 CH2          2.8643    25.2090   -21.9338 CH2           1 RES     
    1292 CH2          3.9065    25.0068   -23.0494 CH2           1 RES     
    1293 CH2          3.2358    24.3401   -24.2648 CH2           1 RES     
    1294 CH2          4.2780    24.1380   -25.3804 CH2           1 RES     
    1295 CH2          3.6073    23.4713   -26.5958 CH2           1 RES     
    1296 CH3          4.6021    23.2783   -27.6607 CH3           1 RES     
    1297 CH3         10.9545     0.0000     0.0000 CH3           1 RES     
    1298 CH3          9.9132     1.1225     1.7858 CH3           1 RES     
    1299 CH3         12.0181     1.4695     1.3040 CH3           1 RES     
    1300 NL          10.8275     1.1722     0.8091 NL            1 RES     
    1301 CH2         10.5792     2.2555    -0.0295 CH2           1 RES     
    1302 CH2          9.1933     1.8790    -0.5853 CH2           1 RES     
    1303 OA           8.7676     3.6553    -4.0374 OA            1 RES     
    1304 P            9.2442     2.5418    -2.9920 P             1 RES     
    1305 OM           8.5688     1.1636    -3.4442 OM            1 RES     
    1306 OM          10.8439     2.5375    -3.0178 OM            1 RES     
    1307 OA           8.7339     2.9318    -1.5265 OA            1 RES     
    1308 CH2          9.2577     3.2614    -5.3827 CH2           1 RES     
    1309 CH1          8.8171     4.3125    -6.4184 CH1           1 RES     
    1310 OE          10.0044     4.8970    -7.0584 OE            1 RES     
    1311 C            9.5861     4.4462    -8.4265 C             1 RES     
    1312 O            8.5571     3.8172    -8.6685 O             1 RES     
    1313 CH2         10.7137     4.7382    -9.2125 CH2           1 RES     
    1314 CH2         10.3223     4.1458   -10.5790 CH2           1 RES     
    1315 CH2         11.5268     4.2202   -11.5357 CH2           1 RES     
    1316 CH2         11.1354     3.6277   -12.9022 CH2           1 RES     
    1317 CH2         12.3399     3.7021   -13.8588 CH2           1 RES     
    1318 CH2         11.9485     3.1097   -15.2253 CH2           1 RES     
    1319 CH2         13.1530     3.1840   -16.1820 CH2           1 RES     
    1320 CH2         12.7615     2.5916   -17.5485 CH2           1 RES     
    1321 CH2         13.9661     2.6659   -18.5051 CH2           1 RES     
    1322 CH2         13.5746     2.0735   -19.8716 CH2           1 RES     
    1323 CH2         14.7792     2.1479   -20.8282 CH2           1 RES     
    1324 CH2         14.3877     1.5554   -22.1948 CH2           1 RES     
    1325 CH2         15.5923     1.6298   -23.1514 CH2           1 RES     
    1326 CH2         15.2008     1.0374   -24.5179 CH2           1 RES     
    1327 CH2         16.4054     1.1117   -25.4745 CH2           1 RES     
    1328 CH2         16.0139     0.5193   -26.8411 CH2           1 RES     
    1329 CH3         17.1637     0.5903   -27.7542 CH3           1 RES     
    1330 CH2          7.9351     3.6410    -7.4874 CH2           1 RES     
    1331 OE           6.6961     3.1656    -6.8682 OE            1 RES     
    1332 C            6.0364     2.6180    -8.0990 C             1 RES     
    1333 O            4.9281     2.0848    -8.1168 O             1 RES     
    1334 CH2          7.0557     2.6955    -9.0633 CH2           1 RES     
    1335 CH2          6.4093     2.0052   -10.2787 CH2           1 RES     
    1336 CH2          7.4581     1.8406   -11.3943 CH2           1 RES     
    1337 CH2          6.8117     1.1502   -12.6097 CH2           1 RES     
    1338 CH2          7.8605     0.9856   -13.7253 CH2           1 RES     
    1339 CH2          7.2141     0.2953   -14.9407 CH2           1 RES     
    1340 CH2          8.2629     0.1307   -16.0563 CH2           1 RES     
    1341 CH2          7.6166    -0.5597   -17.2717 CH2           1 RES     
    1342 CH2          8.6653    -0.7243   -18.3873 CH2           1 RES     
    1343 CH2          8.0190    -1.4146   -19.6028 CH2           1 RES     
    1344 CH2          9.0678    -1.5792   -20.7183 CH2           1 RES     
    1345 CH2          8.4214    -2.2695   -21.9338 CH2           1 RES     
    1346 CH2          9.4702    -2.4341   -23.0494 CH2           1 RES     
    1347 CH2          8.8238    -3.1245   -24.2648 CH2           1 RES     
    1348 CH2          9.8726    -3.2891   -25.3804 CH2           1 RES     
    1349 CH2          9.2262    -3.9794   -26.5958 CH2           1 RES     
    1350 CH3         10.2273    -4.1366   -27.6607 CH3           1 RES     
    1351 CH3         16.4317    10.9545     0.0000 CH3           1 RES     
    1352 CH3         15.2090    11.8760     1.7858 CH3           1 RES     
    1353 CH3         17.2198    12.5883     1.3040 CH3           1 RES     
    1354 NL          16.1002    12.0860     0.8091 NL            1 RES     
    1355 CH2         15.6651    13.1086    -0.0295 CH2           1 RES     
    1356 CH2         14.3671    12.4939    -0.5853 CH2           1 RES     
    1357 OA          13.6352    14.1675    -4.0374 OA            1 RES     
    1358 P           14.3004    13.1552    -2.9920 P             1 RES     
    1359 OM          13.8784    11.6797    -3.4442 OM            1 RES     
    1360 OM          15.8760    13.4328    -3.0178 OM            1 RES     
    1361 OA          13.7295    13.4493    -1.5265 OA            1 RES     
    1362 CH2         14.1871    13.8660    -5.3827 CH2           1 RES     
    1363 CH1         13.5682    14.8230    -6.4184 CH1           1 RES     
    1364 OE          14.6340    15.6075    -7.0584 OE            1 RES     
    1365 C           14.3016    15.0901    -8.4265 C             1 RES     
    1366 O           13.3995    14.2898    -8.6685 O             1 RES     
    1367 CH2         15.3602    15.5762    -9.2125 CH2           1 RES     
    1368 CH2         15.0792    14.9241   -10.5790 CH2           1 RES     
    1369 CH2         16.2518    15.2094   -11.5357 CH2           1 RES     
    1370 CH2         15.9708    14.5573   -12.9022 CH2           1 RES     
    1371 CH2         17.1434    14.8427   -13.8588 CH2           1 RES     
    1372 CH2         16.8624    14.1906   -15.2253 CH2           1 RES     
    1373 CH2         18.0351    14.4759   -16.1820 CH2           1 RES     
    1374 CH2         17.7541    13.8238   -17.5485 CH2           1 RES     
    1375 CH2         18.9267    14.1092   -18.5051 CH2           1 RES     
    1376 CH2         18.6457    13.4570   -19.8716 CH2           1 RES     
    1377 CH2         19.8183    13.7424   -20.8282 CH2           1 RES     
    1378 CH2         19.5373    13.0903   -22.1948 CH2           1 RES     
    1379 CH2         20.7099    13.3756   -23.1514 CH2           1 RES     
    1380 CH2         20.4289    12.7235   -24.5179 CH2           1 RES     
    1381 CH2         21.6016    13.0089   -25.4745 CH2           1 RES     
    1382 CH2         21.3206    12.3568   -26.8411 CH2           1 RES     
    1383 CH3         22.4399    12.6291   -27.7542 CH3           1 RES     
    1384 CH2         12.8182    14.0067    -7.4874 CH2           1 RES     
    1385 OE          11.6824    13.3205    -6.8682 OE            1 RES     
    1386 C           11.1294    12.6653    -8.0990 C             1 RES     
    1387 O           10.1324    11.9453    -8.1168 O             1 RES     
    1388 CH2         12.1191    12.9211    -9.0633 CH2           1 RES     
    1389 CH2         11.6044    12.1277   -10.2787 CH2           1 RES     
    1390 CH2         12.6658    12.1504   -11.3943 CH2           1 RES     
    1391 CH2         12.1511    11.3570   -12.6097 CH2           1 RES     
    1392 CH2         13.2125    11.3797   -13.7253 CH2           1 RES     
    1393 CH2         12.6978    10.5863   -14.9407 CH2           1 RES     
    1394 CH2         13.7592    10.6090   -16.0563 CH2           1 RES     
    1395 CH2         13.2445     9.8156   -17.2717 CH2           1 RES     
    1396 CH2         14.3059     9.8383   -18.3873 CH2           1 RES     
    1397 CH2         13.7912     9.0449   -19.6028 CH2           1 RES     
    1398 CH2         14.8526     9.0676   -20.7183 CH2           1 RES     
    1399 CH2         14.3380     8.2742   -21.9338 CH2           1 RES     
    1400 CH2         15.3993     8.2969   -23.0494 CH2           1 RES     
    1401 CH2         14.8847     7.5035   -24.2648 CH2           1 RES     
    1402 CH2         15.9460     7.5262   -25.3804 CH2           1 RES     
    1403 CH2         15.4314     6.7328   -26.5958 CH2           1 RES     
    1404 CH3         16.4445     6.7545   -27.6607 CH3           1 RES     
    1405 CH3         27.3861     0.0000     0.0000 CH3           1 RES     
    1406 CH3         26.1700     0.9301     1.7858 CH3           1 RES     
    1407 CH3         28.1857     1.6283     1.3040 CH3           1 RES     
    1408 NL          27.0626     1.1338     0.8091 NL            1 RES     
    1409 CH2         26.6347     2.1595    -0.0295 CH2           1 RES     
    1410 CH2         25.3324     1.5539    -0.5853 CH2           1 RES     
    1411 OA          24.6123     3.2326    -4.0374 OA            1 RES     
    1412 P           25.2704     2.2157    -2.9920 P             1 RES     
    1413 OM          24.8380     0.7431    -3.4442 OM            1 RES     
    1414 OM          26.8478     2.4822    -3.0178 OM            1 RES     
    1415 OA          24.7015     2.5138    -1.5265 OA            1 RES     
    1416 CH2         25.1620     2.9272    -5.3827 CH2           1 RES     
    1417 CH1         24.5499     3.8886    -6.4184 CH1           1 RES     
    1418 OE          25.6212     4.6656    -7.0584 OE            1 RES     
    1419 C           25.2852     4.1505    -8.4265 C             1 RES     
    1420 O           24.3775     3.3565    -8.6685 O             1 RES     
    1421 CH2         26.3471     4.6292    -9.2125 CH2           1 RES     
    1422 CH2         26.0615     3.9790   -10.5790 CH2           1 RES     
    1423 CH2         27.2361     4.2562   -11.5357 CH2           1 RES     
    1424 CH2         26.9506     3.6060   -12.9022 CH2           1 RES     
    1425 CH2         28.1252     3.8831   -13.8588 CH2           1 RES     
    1426 CH2         27.8396     3.2330   -15.2253 CH2           1 RES     
    1427 CH2         29.0142     3.5101   -16.1820 CH2           1 RES     
    1428 CH2         28.7286     2.8600   -17.5485 CH2           1 RES     
    1429 CH2         29.9032     3.1371   -18.5051 CH2           1 RES     
    1430 CH2         29.6177     2.4870   -19.8716 CH2           1 RES     
    1431 CH2         30.7922     2.7641   -20.8282 CH2           1 RES     
    1432 CH2         30.5067     2.1140   -22.1948 CH2           1 RES     
    1433 CH2         31.6813     2.3911   -23.1514 CH2           1 RES     
    1434 CH2         31.3957     1.7410   -24.5179 CH2           1 RES     
    1435 CH2         32.5703     2.0181   -25.4745 CH2           1 RES     
    1436 CH2         32.2847     1.3679   -26.8411 CH2           1 RES     
    1437 CH3         33.4059     1.6325   -27.7542 CH3           1 RES     
    1438 CH2         23.7942     3.0775    -7.4874 CH2           1 RES     
    1439 OE          22.6536     2.3993    -6.8682 OE            1 RES     
    1440 C           22.0960     1.7480    -8.0990 C             1 RES     
    1441 O           21.0939     1.0350    -8.1168 O             1 RES     
    1442 CH2         23.0874     1.9969    -9.0633 CH2           1 RES     
    1443 CH2         22.5672     1.2072   -10.2787 CH2           1 RES     
    1444 CH2         23.6287     1.2224   -11.3943 CH2           1 RES     
    1445 CH2         23.1085     0.4326   -12.6097 CH2           1 RES     
    1446 CH2         24.1700     0.4479   -13.7253 CH2           1 RES     
    1447 CH2         23.6498    -0.3419   -14.9407 CH2           1 RES     
    1448 CH2         24.7113    -0.3266   -16.0563 CH2           1 RES     
    1449 CH2         24.1911    -1.1164   -17.2717 CH2           1 RES     
    1450 CH2         25.2526    -1.1012   -18.3873 CH2           1 RES     
    1451 CH2         24.7324    -1.8909   -19.6028 CH2           1 RES     
    1452 CH2         25.7939    -1.8757   -20.7183 CH2           1 RES     
    1453 CH2         25.2736    -2.6654   -21.9338 CH2           1 RES     
    1454 CH2         26.3351    -2.6502   -23.0494 CH2           1 RES     
    1455 CH2         25.8149    -3.4400   -24.2648 CH2           1 RES     
    1456 CH2         26.8764    -3.4247   -25.3804 CH2           1 RES     
    1457 CH2         26.3562    -4.2145   -26.5958 CH2           1 RES     
    1458 CH3         27.3695    -4.1999   -27.6607 CH3           1 RES     
    1459 CH3         38.3406    27.3861     0.0000 CH3           1 RES     
    1460 CH3         37.3106    28.5189     1.7858 CH3           1 RES     
    1461 CH3         39.4188    28.8449     1.3040 CH3           1 RES     
    1462 NL          38.2253    28.5596     0.8091 NL            1 RES     
    1463 CH2         37.9879    29.6453    -0.0295 CH2           1 RES     
    1464 CH2         36.5983    29.2826    -0.5853 CH2           1 RES     
    1465 OA          36.1904    31.0631    -4.0374 OA            1 RES     
    1466 P           36.6558    29.9449    -2.9920 P             1 RES     
    1467 OM          35.9667    28.5735    -3.4442 OM            1 RES     
    1468 OM          38.2554    29.9246    -3.0178 OM            1 RES     
    1469 OA          36.1495    30.3400    -1.5265 OA            1 RES     
    1470 CH2         36.6766    30.6643    -5.3827 CH2           1 RES     
    1471 CH1         36.2465    31.7197    -6.4184 CH1           1 RES     
    1472 OE          37.4396    32.2923    -7.0584 OE            1 RES     
    1473 C           37.0168    31.8458    -8.4265 C             1 RES     
    1474 O           35.9816    31.2272    -8.6685 O             1 RES     
    1475 CH2         38.1473    32.1265    -9.2125 CH2           1 RES     
    1476 CH2         37.7499    31.5380   -10.5790 CH2           1 RES     
    1477 CH2         38.9551    31.6003   -11.5357 CH2           1 RES     
    1478 CH2         38.5578    31.0119   -12.9022 CH2           1 RES     
    1479 CH2         39.7630    31.0742   -13.8588 CH2           1 RES     
    1480 CH2         39.3656    30.4857   -15.2253 CH2           1 RES     
    1481 CH2         40.5709    30.5480   -16.1820 CH2           1 RES     
    1482 CH2         40.1735    29.9595   -17.5485 CH2           1 RES     
    1483 CH2         41.3787    30.0218   -18.5051 CH2           1 RES     
    1484 CH2         40.9814    29.4333   -19.8716 CH2           1 RES     
    1485 CH2         42.1866    29.4957   -20.8282 CH2           1 RES     
    1486 CH2         41.7892    28.9072   -22.1948 CH2           1 RES     
    1487 CH2         42.9945    28.9695   -23.1514 CH2           1 RES     
    1488 CH2         42.5971    28.3810   -24.5179 CH2           1 RES     
    1489 CH2         43.8023    28.4433   -25.4745 CH2           1 RES     
    1490 CH2         43.4050    27.8548   -26.8411 CH2           1 RES     
    1491 CH3         44.5554    27.9143   -27.7542 CH3           1 RES     
    1492 CH2         35.3578    31.0571    -7.4874 CH2           1 RES     
    1493 OE          34.1141    30.5941    -6.8682 OE            1 RES     
    1494 C           33.4490    30.0531    -8.0990 C             1 RES     
    1495 O           32.3354    29.5311    -8.1168 O             1 RES     
    1496 CH2         34.4689    30.1205    -9.0633 CH2           1 RES     
    1497 CH2         33.8157    29.4367   -10.2787 CH2           1 RES     
    1498 CH2         34.8628    29.2616   -11.3943 CH2           1 RES     
    1499 CH2         34.2096    28.5777   -12.6097 CH2           1 RES     
    1500 CH2         35.2566    28.4026   -13.7253 CH2           1 RES     
    1501 CH2         34.6034    27.7188   -14.9407 CH2           1 RES     
    1502 CH2         35.6505    27.5437   -16.0563 CH2           1 RES     
    1503 CH2         34.9973    26.8599   -17.2717 CH2           1 RES     
    1504 CH2         36.0443    26.6848   -18.3873 CH2           1 RES     
    1505 CH2         35.3911    26.0010   -19.6028 CH2           1 RES     
    1506 CH2         36.4382    25.8259   -20.7183 CH2           1 RES     
    1507 CH2         35.7850    25.1420   -21.9338 CH2           1 RES     
    1508 CH2         36.8320    24.9669   -23.0494 CH2           1 RES     
    1509 CH2         36.1788    24.2831   -24.2648 CH2           1 RES     
    1510 CH2         37.2259    24.1080   -25.3804 CH2           1 RES     
    1511 CH2         36.5726    23.4242   -26.5958 CH2           1 RES     
    1512 CH3         37.5721    23.2571   -27.6607 CH3           1 RES     
    1513 CH3         16.4317    32.8634     0.0000 CH3           1 RES     
    1514 CH3         15.3217    33.9178     1.7858 CH3           1 RES     
    1515 CH3         17.4004    34.3971     1.3040 CH3           1 RES     
    1516 NL          16.2310    34.0252     0.8091 NL            1 RES     
    1517 CH2         15.9148    35.0907    -0.0295 CH2           1 RES     
    1518 CH2         14.5554    34.6274    -0.5853 CH2           1 RES     
    1519 OA          14.0185    36.3733    -4.0374 OA            1 RES     
    1520 P           14.5643    35.2921    -2.9920 P             1 RES     
    1521 OM          13.9773    33.8740    -3.4442 OM            1 RES     
    1522 OM          16.1612    35.3888    -3.0178 OM            1 RES     
    1523 OA          14.0305    35.6491    -1.5265 OA            1 RES     
    1524 CH2         14.5324    36.0111    -5.3827 CH2           1 RES     
    1525 CH1         14.0264    37.0323    -6.4184 CH1           1 RES     
    1526 OE          15.1744    37.6906    -7.0584 OE            1 RES     
    1527 C           14.7854    37.2143    -8.4265 C             1 RES     
    1528 O           13.7982    36.5216    -8.6685 O             1 RES     
    1529 CH2         15.8923    37.5769    -9.2125 CH2           1 RES     
    1530 CH2         15.5390    36.9610   -10.5790 CH2           1 RES     
    1531 CH2         16.7365    37.1112   -11.5357 CH2           1 RES     
    1532 CH2         16.3832    36.4953   -12.9022 CH2           1 RES     
    1533 CH2         17.5806    36.6455   -13.8588 CH2           1 RES     
    1534 CH2         17.2274    36.0296   -15.2253 CH2           1 RES     
    1535 CH2         18.4248    36.1798   -16.1820 CH2           1 RES     
    1536 CH2         18.0715    35.5639   -17.5485 CH2           1 RES     
    1537 CH2         19.2690    35.7141   -18.5051 CH2           1 RES     
    1538 CH2         18.9157    35.0982   -19.8716 CH2           1 RES     
    1539 CH2         20.1132    35.2484   -20.8282 CH2           1 RES     
    1540 CH2         19.7599    34.6325   -22.1948 CH2           1 RES     
    1541 CH2         20.9573    34.7827   -23.1514 CH2           1 RES     
    1542 CH2         20.6041    34.1668   -24.5179 CH2           1 RES     
    1543 CH2         21.8015    34.3170   -25.4745 CH2           1 RES     
    1544 CH2         21.4482    33.7011   -26.8411 CH2           1 RES     
    1545 CH3         22.5913    33.8445   -27.7542 CH3           1 RES     
    1546 CH2         13.1885    36.3064    -7.4874 CH2           1 RES     
    1547 OE          11.9820    35.7538    -6.8682 OE            1 RES     
    1548 C           11.3582    35.1656    -8.0990 C             1 RES     
    1549 O           10.2858    34.5636    -8.1168 O             1 RES     
    1550 CH2         12.3705    35.3073    -9.0633 CH2           1 RES     
    1551 CH2         11.7690    34.5776   -10.2787 CH2           1 RES     
    1552 CH2         12.8261    34.4795   -11.3943 CH2           1 RES     
    1553 CH2         12.2246    33.7497   -12.6097 CH2           1 RES     
    1554 CH2         13.2817    33.6517   -13.7253 CH2           1 RES     
    1555 CH2         12.6802    32.9219   -14.9407 CH2           1 RES     
    1556 CH2         13.7373    32.8238   -16.0563 CH2           1 RES     
    1557 CH2         13.1358    32.0941   -17.2717 CH2           1 RES     
    1558 CH2         14.1929    31.9960   -18.3873 CH2           1 RES     
    1559 CH2         13.5914    31.2662   -19.6028 CH2           1 RES     
    1560 CH2         14.6484    31.1682   -20.7183 CH2           1 RES     
    1561 CH2         14.0470    30.4384   -21.9338 CH2           1 RES     
    1562 CH2         15.1040    30.3404   -23.0494 CH2           1 RES     
    1563 CH2         14.5025    29.6106   -24.2648 CH2           1 RES     
    1564 CH2         15.5596    29.5125   -25.3804 CH2           1 RES     
    1565 CH2         14.9581    28.7828   -26.5958 CH2           1 RES     
    1566 CH3         15.9672    28.6892   -27.6607 CH3           1 RES     
    1567 CH3         10.9545    16.4317     0.0000 CH3           1 RES     
    1568 CH3          9.9970    17.6264     1.7858 CH3           1 RES     
    1569 CH3         12.1214    17.8206     1.3040 CH3           1 RES     
    1570 NL          10.9125    17.6100     0.8091 NL            1 RES     
    1571 CH2         10.7431    18.7084    -0.0295 CH2           1 RES     
    1572 CH2          9.3335    18.4329    -0.5853 CH2           1 RES     
    1573 OA           9.0373    20.2354    -4.0374 OA            1 RES     
    1574 P            9.4322    19.0903    -2.9920 P             1 RES     
    1575 OM           8.6591    17.7645    -3.4442 OM            1 RES     
    1576 OM          11.0275    18.9706    -3.0178 OM            1 RES     
    1577 OA           8.9514    19.5162    -1.5265 OA            1 RES     
    1578 CH2          9.4977    19.8071    -5.3827 CH2           1 RES     
    1579 CH1          9.1341    20.8872    -6.4184 CH1           1 RES     
    1580 OE          10.3605    21.3844    -7.0584 OE            1 RES     
    1581 C            9.9107    20.9651    -8.4265 C             1 RES     
    1582 O            8.8390    20.4121    -8.6685 O             1 RES     
    1583 CH2         11.0565    21.1749    -9.2125 CH2           1 RES     
    1584 CH2         10.6233    20.6123   -10.5790 CH2           1 RES     
    1585 CH2         11.8301    20.5995   -11.5357 CH2           1 RES     
    1586 CH2         11.3968    20.0369   -12.9022 CH2           1 RES     
    1587 CH2         12.6036    20.0241   -13.8588 CH2           1 RES     
    1588 CH2         12.1704    19.4614   -15.2253 CH2           1 RES     
    1589 CH2         13.3772    19.4486   -16.1820 CH2           1 RES     
    1590 CH2         12.9440    18.8860   -17.5485 CH2           1 RES     
    1591 CH2         14.1507    18.8732   -18.5051 CH2           1 RES     
    1592 CH2         13.7175    18.3106   -19.8716 CH2           1 RES     
    1593 CH2         14.9243    18.2978   -20.8282 CH2           1 RES     
    1594 CH2         14.4911    17.7352   -22.1948 CH2           1 RES     
    1595 CH2         15.6978    17.7223   -23.1514 CH2           1 RES     
    1596 CH2         15.2646    17.1597   -24.5179 CH2           1 RES     
    1597 CH2         16.4714    17.1469   -25.4745 CH2           1 RES     
    1598 CH2         16.0382    16.5843   -26.8411 CH2           1 RES     
    1599 CH3         17.1901    16.5721   -27.7542 CH3           1 RES     
    1600 CH2          8.2059    20.2812    -7.4874 CH2           1 RES     
    1601 OE           6.9358    19.8965    -6.8682 OE            1 RES     
    1602 C            6.2383    19.3979    -8.0990 C             1 RES     
    1603 O            5.0944    18.9462    -8.1168 O             1 RES     
    1604 CH2          7.2605    19.4017    -9.0633 CH2           1 RES     
    1605 CH2          6.5660    18.7598   -10.2787 CH2           1 RES     
    1606 CH2          7.6001    18.5199   -11.3943 CH2           1 RES     
    1607 CH2          6.9056    17.8780   -12.6097 CH2           1 RES     
    1608 CH2          7.9397    17.6381   -13.7253 CH2           1 RES     
    1609 CH2          7.2452    16.9963   -14.9407 CH2           1 RES     
    1610 CH2          8.2794    16.7564   -16.0563 CH2           1 RES     
    1611 CH2          7.5849    16.1145   -17.2717 CH2           1 RES     
    1612 CH2          8.6190    15.8746   -18.3873 CH2           1 RES     
    1613 CH2          7.9245    15.2327   -19.6028 CH2           1 RES     
    1614 CH2          8.9587    14.9928   -20.7183 CH2           1 RES     
    1615 CH2          8.2641    14.3510   -21.9338 CH2           1 RES     
    1616 CH2          9.2983    14.1111   -23.0494 CH2           1 RES     
    1617 CH2          8.6038    13.4692   -24.2648 CH2           1 RES     
    1618 CH2          9.6379    13.2293   -25.3804 CH2           1 RES     
    1619 CH2          8.9434    12.5874   -26.5958 CH2           1 RES     
    1620 CH3          9.9305    12.3584   -27.6607 CH3           1 RES     
    1621 CH3         38.3406    16.4317     0.0000 CH3           1 RES     
    1622 CH3         37.0142    17.1963     1.7858 CH3           1 RES     
    1623 CH3         38.9225    18.1499     1.3040 CH3           1 RES     
    1624 NL          37.8729    17.5140     0.8091 NL            1 RES     
    1625 CH2         37.3156    18.4756    -0.0295 CH2           1 RES     
    1626 CH2         36.1028    17.7063    -0.5853 CH2           1 RES     
    1627 OA          35.1713    19.2775    -4.0374 OA            1 RES     
    1628 P           35.9556    18.3545    -2.9920 P             1 RES     
    1629 OM          35.7176    16.8383    -3.4442 OM            1 RES     
    1630 OM          37.4852    18.8232    -3.0178 OM            1 RES     
    1631 OA          35.3528    18.5764    -1.5265 OA            1 RES     
    1632 CH2         35.7559    19.0460    -5.3827 CH2           1 RES     
    1633 CH1         35.0244    19.9200    -6.4184 CH1           1 RES     
    1634 OE          35.9859    20.8292    -7.0584 OE            1 RES     
    1635 C           35.7195    20.2750    -8.4265 C             1 RES     
    1636 O           34.9223    19.3700    -8.6685 O             1 RES     
    1637 CH2         36.7105    20.8872    -9.2125 CH2           1 RES     
    1638 CH2         36.5115    20.2055   -10.5790 CH2           1 RES     
    1639 CH2         37.6403    20.6325   -11.5357 CH2           1 RES     
    1640 CH2         37.4414    19.9509   -12.9022 CH2           1 RES     
    1641 CH2         38.5702    20.3778   -13.8588 CH2           1 RES     
    1642 CH2         38.3713    19.6962   -15.2253 CH2           1 RES     
    1643 CH2         39.5001    20.1232   -16.1820 CH2           1 RES     
    1644 CH2         39.3011    19.4415   -17.5485 CH2           1 RES     
    1645 CH2         40.4299    19.8685   -18.5051 CH2           1 RES     
    1646 CH2         40.2310    19.1869   -19.8716 CH2           1 RES     
    1647 CH2         41.3598    19.6139   -20.8282 CH2           1 RES     
    1648 CH2         41.1609    18.9322   -22.1948 CH2           1 RES     
    1649 CH2         42.2897    19.3592   -23.1514 CH2           1 RES     
    1650 CH2         42.0907    18.6775   -24.5179 CH2           1 RES     
    1651 CH2         43.2195    19.1045   -25.4745 CH2           1 RES     
    1652 CH2         43.0206    18.4229   -26.8411 CH2           1 RES     
    1653 CH3         44.0981    18.8305   -27.7542 CH3           1 RES     
    1654 CH2         34.3801    19.0178    -7.4874 CH2           1 RES     
    1655 OE          33.3370    18.1975    -6.8682 OE            1 RES     
    1656 C           32.8686    17.4794    -8.0990 C             1 RES     
    1657 O           31.9673    16.6426    -8.1168 O             1 RES     
    1658 CH2         33.8194    17.8547    -9.0633 CH2           1 RES     
    1659 CH2         33.4059    17.0042   -10.2787 CH2           1 RES     
    1660 CH2         34.4565    17.1569   -11.3943 CH2           1 RES     
    1661 CH2         34.0430    16.3064   -12.6097 CH2           1 RES     
    1662 CH2         35.0935    16.4590   -13.7253 CH2           1 RES     
    1663 CH2         34.6800    15.6085   -14.9407 CH2           1 RES     
    1664 CH2         35.7306    15.7612   -16.0563 CH2           1 RES     
    1665 CH2         35.3171    14.9107   -17.2717 CH2           1 RES     
    1666 CH2         36.3677    15.0633   -18.3873 CH2           1 RES     
    1667 CH2         35.9542    14.2128   -19.6028 CH2           1 RES     
    1668 CH2         37.0048    14.3655   -20.7183 CH2           1 RES     
    1669 CH2         36.5913    13.5150   -21.9338 CH2           1 RES     
    1670 CH2         37.6419    13.6676   -23.0494 CH2           1 RES     
    1671 CH2         37.2284    12.8171   -24.2648 CH2           1 RES     
    1672 CH2         38.2790    12.9698   -25.3804 CH2           1 RES     
    1673 CH2         37.8655    12.1193   -26.5958 CH2           1 RES     
    1674 CH3         38.8683    12.2650   -27.6607 CH3           1 RES     
    1675 CH3         10.9545    32.8634     0.0000 CH3           1 RES     
    1676 CH3          9.9803    34.0445     1.7858 CH3           1 RES     
    1677 CH3         12.1018    34.2685     1.3040 CH3           1 RES     
    1678 NL          10.8959    34.0410     0.8091 NL            1 RES     
    1679 CH2         10.7112    35.1369    -0.0295 CH2           1 RES     
    1680 CH2          9.3056    34.8417    -0.5853 CH2           1 RES     
    1681 OA           8.9841    36.6398    -4.0374 OA            1 RES     
    1682 P            9.3950    35.5004    -2.9920 P             1 RES     
    1683 OM           8.6406    34.1638    -3.4442 OM            1 RES     
    1684 OM          10.9918    35.4030    -3.0178 OM            1 RES     
    1685 OA           8.9083    35.9194    -1.5265 OA            1 RES     
    1686 CH2          9.4505    36.2180    -5.3827 CH2           1 RES     
    1687 CH1          9.0718    37.2929    -6.4184 CH1           1 RES     
    1688 OE          10.2911    37.8073    -7.0584 OE            1 RES     
    1689 C            9.8473    37.3816    -8.4265 C             1 RES     
    1690 O            8.7834    36.8137    -8.6685 O             1 RES     
    1691 CH2         10.9900    37.6076    -9.2125 CH2           1 RES     
    1692 CH2         10.5647    37.0389   -10.5790 CH2           1 RES     
    1693 CH2         11.7715    37.0430   -11.5357 CH2           1 RES     
    1694 CH2         11.3462    36.4744   -12.9022 CH2           1 RES     
    1695 CH2         12.5531    36.4785   -13.8588 CH2           1 RES     
    1696 CH2         12.1278    35.9099   -15.2253 CH2           1 RES     
    1697 CH2         13.3346    35.9140   -16.1820 CH2           1 RES     
    1698 CH2         12.9093    35.3454   -17.5485 CH2           1 RES     
    1699 CH2         14.1162    35.3495   -18.5051 CH2           1 RES     
    1700 CH2         13.6909    34.7808   -19.8716 CH2           1 RES     
    1701 CH2         14.8977    34.7850   -20.8282 CH2           1 RES     
    1702 CH2         14.4724    34.2163   -22.1948 CH2           1 RES     
    1703 CH2         15.6793    34.2204   -23.1514 CH2           1 RES     
    1704 CH2         15.2540    33.6518   -24.5179 CH2           1 RES     
    1705 CH2         16.4608    33.6559   -25.4745 CH2           1 RES     
    1706 CH2         16.0355    33.0873   -26.8411 CH2           1 RES     
    1707 CH3         17.1875    33.0912   -27.7542 CH3           1 RES     
    1708 CH2          8.1521    36.6739    -7.4874 CH2           1 RES     
    1709 OE           6.8876    36.2714    -6.8682 OE            1 RES     
    1710 C            6.1972    35.7632    -8.0990 C             1 RES     
    1711 O            5.0597    35.2954    -8.1168 O             1 RES     
    1712 CH2          7.2192    35.7812    -9.0633 CH2           1 RES     
    1713 CH2          6.5337    35.1297   -10.2787 CH2           1 RES     
    1714 CH2          7.5712    34.9043   -11.3943 CH2           1 RES     
    1715 CH2          6.8857    34.2528   -12.6097 CH2           1 RES     
    1716 CH2          7.9231    34.0274   -13.7253 CH2           1 RES     
    1717 CH2          7.2377    33.3759   -14.9407 CH2           1 RES     
    1718 CH2          8.2751    33.1505   -16.0563 CH2           1 RES     
    1719 CH2          7.5896    32.4989   -17.2717 CH2           1 RES     
    1720 CH2          8.6271    32.2736   -18.3873 CH2           1 RES     
    1721 CH2          7.9416    31.6220   -19.6028 CH2           1 RES     
    1722 CH2          8.9790    31.3967   -20.7183 CH2           1 RES     
    1723 CH2          8.2936    30.7451   -21.9338 CH2           1 RES     
    1724 CH2          9.3310    30.5197   -23.0494 CH2           1 RES     
    1725 CH2          8.6455    29.8682   -24.2648 CH2           1 RES     
    1726 CH2          9.6830    29.6428   -25.3804 CH2           1 RES     
    1727 CH2          8.9975    28.9913   -26.5958 CH2           1 RES     
    1728 CH3          9.9878    28.7761   -27.6607 CH3           1 RES     
    1729 CH3         28.6844    21.7895   -21.1623 CH3           1 RES     
    1730 CH2         22.6819    21.7926    -4.6711 CH2           1 RES     
    1731 CH2         23.1185    22.6782    -5.8529 CH2           1 RES     
    1732 CH2         23.5421    21.7863    -7.0346 CH2           1 RES     
    1733 CH2         23.9787    22.6720    -8.2164 CH2           1 RES     
    1734 CH2         24.4024    21.7801    -9.3982 CH2           1 RES     
    1735 CH2         24.8389    22.6658   -10.5800 CH2           1 RES     
    1736 CH2         25.2626    21.7739   -11.7618 CH2           1 RES     
    1737 CH2         25.6992    22.6596   -12.9436 CH2           1 RES     
    1738 CH2         26.1229    21.7677   -14.1253 CH2           1 RES     
    1739 CH2         26.5594    22.6533   -15.3071 CH2           1 RES     
    1740 CH2         26.9831    21.7614   -16.4889 CH2           1 RES     
    1741 CH2         27.4197    22.6471   -17.6707 CH2           1 RES     
    1742 CH2         27.8434    21.7552   -18.8525 CH2           1 RES     
    1743 CH2         28.2799    22.6409   -20.0343 CH2           1 RES     
    1744 O           22.3125    23.8435    -3.5630 O             1 RES     
    1745 C           22.2949    22.6136    -3.5661 C             1 RES     
    1746 OA          21.9089    21.9089    -2.5000 OA            1 RES     
    1747 H           21.6736    22.5277    -1.8047 H             1 RES     
    1748 CH3          6.7731    -0.2158   -21.1623 CH3           1 RES     
    1749 CH2          0.7713    -0.1273    -4.6711 CH2           1 RES     
    1750 CH2          1.2204     0.7520    -5.8529 CH2           1 RES     
    1751 CH2          1.6313    -0.1458    -7.0346 CH2           1 RES     
    1752 CH2          2.0805     0.7336    -8.2164 CH2           1 RES     
    1753 CH2          2.4914    -0.1643    -9.3982 CH2           1 RES     
    1754 CH2          2.9405     0.7151   -10.5800 CH2           1 RES     
    1755 CH2          3.3515    -0.1827   -11.7618 CH2           1 RES     
    1756 CH2          3.8006     0.6966   -12.9436 CH2           1 RES     
    1757 CH2          4.2115    -0.2012   -14.1253 CH2           1 RES     
    1758 CH2          4.6607     0.6782   -15.3071 CH2           1 RES     
    1759 CH2          5.0716    -0.2197   -16.4889 CH2           1 RES     
    1760 CH2          5.5207     0.6597   -17.6707 CH2           1 RES     
    1761 CH2          5.9317    -0.2381   -18.8525 CH2           1 RES     
    1762 CH2          6.3808     0.6412   -20.0343 CH2           1 RES     
    1763 O            0.4311     1.9286    -3.5630 O             1 RES     
    1764 C            0.3960     0.6991    -3.5661 C             1 RES     
    1765 OA           0.0000     0.0000    -2.5000 OA            1 RES     
    1766 H           -0.2264     0.6220    -1.8047 H             1 RES     
    1767 CH3         28.6836     5.3188   -21.1623 CH3           1 RES     
    1768 CH2         22.6812     5.3564    -4.6711 CH2           1 RES     
    1769 CH2         23.1229     6.2396    -5.8529 CH2           1 RES     
    1770 CH2         23.5414     5.3453    -7.0346 CH2           1 RES     
    1771 CH2         23.9831     6.2284    -8.2164 CH2           1 RES     
    1772 CH2         24.4016     5.3341    -9.3982 CH2           1 RES     
    1773 CH2         24.8433     6.2172   -10.5800 CH2           1 RES     
    1774 CH2         25.2618     5.3229   -11.7618 CH2           1 RES     
    1775 CH2         25.7035     6.2060   -12.9436 CH2           1 RES     
    1776 CH2         26.1220     5.3117   -14.1253 CH2           1 RES     
    1777 CH2         26.5637     6.1948   -15.3071 CH2           1 RES     
    1778 CH2         26.9822     5.3005   -16.4889 CH2           1 RES     
    1779 CH2         27.4239     6.1836   -17.6707 CH2           1 RES     
    1780 CH2         27.8424     5.2893   -18.8525 CH2           1 RES     
    1781 CH2         28.2840     6.1724   -20.0343 CH2           1 RES     
    1782 O           22.3237     7.4094    -3.5630 O             1 RES     
    1783 C           22.2989     6.1797    -3.5661 C             1 RES     
    1784 OA          21.9089     5.4772    -2.5000 OA            1 RES     
    1785 H           21.6772     6.0973    -1.8047 H             1 RES     
    1786 CH3         12.2195    -0.6801   -21.1623 CH3           1 RES     
    1787 CH2          6.2379    -0.1799    -4.6711 CH2           1 RES     
    1788 CH2          6.7463     0.6665    -5.8529 CH2           1 RES     
    1789 CH2          7.0947    -0.2574    -7.0346 CH2           1 RES     
    1790 CH2          7.6031     0.5891    -8.2164 CH2           1 RES     
    1791 CH2          7.9515    -0.3349    -9.3982 CH2           1 RES     
    1792 CH2          8.4599     0.5116   -10.5800 CH2           1 RES     
    1793 CH2          8.8083    -0.4123   -11.7618 CH2           1 RES     
    1794 CH2          9.3167     0.4342   -12.9436 CH2           1 RES     
    1795 CH2          9.6650    -0.4898   -14.1253 CH2           1 RES     
    1796 CH2         10.1734     0.3567   -15.3071 CH2           1 RES     
    1797 CH2         10.5218    -0.5672   -16.4889 CH2           1 RES     
    1798 CH2         11.0302     0.2793   -17.6707 CH2           1 RES     
    1799 CH2         11.3786    -0.6447   -18.8525 CH2           1 RES     
    1800 CH2         11.8870     0.2018   -20.0343 CH2           1 RES     
    1801 O            6.0397     1.8945    -3.5630 O             1 RES     
    1802 C            5.9202     0.6703    -3.5661 C             1 RES     
    1803 OA           5.4772     0.0000    -2.5000 OA            1 RES     
    1804 H            5.2940     0.6361    -1.8047 H             1 RES     
    1805 CH3         39.5026     1.3569   -21.1623 CH3           1 RES     
    1806 CH2         33.6432     0.0546    -4.6711 CH2           1 RES     
    1807 CH2         33.8767     1.0140    -5.8529 CH2           1 RES     
    1808 CH2         34.4842     0.2355    -7.0346 CH2           1 RES     
    1809 CH2         34.7177     1.1950    -8.2164 CH2           1 RES     
    1810 CH2         35.3252     0.4165    -9.3982 CH2           1 RES     
    1811 CH2         35.5587     1.3759   -10.5800 CH2           1 RES     
    1812 CH2         36.1662     0.5975   -11.7618 CH2           1 RES     
    1813 CH2         36.3997     1.5569   -12.9436 CH2           1 RES     
    1814 CH2         37.0072     0.7785   -14.1253 CH2           1 RES     
    1815 CH2         37.2407     1.7379   -15.3071 CH2           1 RES     
    1816 CH2         37.8482     0.9595   -16.4889 CH2           1 RES     
    1817 CH2         38.0817     1.9189   -17.6707 CH2           1 RES     
    1818 CH2         38.6892     1.1405   -18.8525 CH2           1 RES     
    1819 CH2         38.9227     2.0999   -20.0343 CH2           1 RES     
    1820 O           32.8366     1.9760    -3.5630 O             1 RES     
    1821 C           33.0868     0.7718    -3.5661 C             1 RES     
    1822 OA          32.8634     0.0000    -2.5000 OA            1 RES     
    1823 H           32.4992     0.5528    -1.8047 H             1 RES     
    1824 CH3         23.1349     6.4712   -21.1623 CH3           1 RES     
    1825 CH2         17.2133     5.4893    -4.6711 CH2           1 RES     
    1826 CH2         17.4986     6.4346    -5.8529 CH2           1 RES     
    1827 CH2         18.0629     5.6243    -7.0346 CH2           1 RES     
    1828 CH2         18.3482     6.5696    -8.2164 CH2           1 RES     
    1829 CH2         18.9125     5.7593    -9.3982 CH2           1 RES     
    1830 CH2         19.1978     6.7046   -10.5800 CH2           1 RES     
    1831 CH2         19.7621     5.8943   -11.7618 CH2           1 RES     
    1832 CH2         20.0474     6.8396   -12.9436 CH2           1 RES     
    1833 CH2         20.6117     6.0294   -14.1253 CH2           1 RES     
    1834 CH2         20.8970     6.9746   -15.3071 CH2           1 RES     
    1835 CH2         21.4613     6.1644   -16.4889 CH2           1 RES     
    1836 CH2         21.7466     7.1097   -17.6707 CH2           1 RES     
    1837 CH2         22.3109     6.2994   -18.8525 CH2           1 RES     
    1838 CH2         22.5962     7.2447   -20.0343 CH2           1 RES     
    1839 O           16.5124     7.4518    -3.5630 O             1 RES     
    1840 C           16.6968     6.2357    -3.5661 C             1 RES     
    1841 OA          16.4317     5.4772    -2.5000 OA            1 RES     
    1842 H           16.0981     6.0490    -1.8047 H             1 RES     
    1843 CH3         45.0889    21.2919   -21.1623 CH3           1 RES     
    1844 CH2         39.1029    21.7361    -4.6711 CH2           1 RES     
    1845 CH2         39.6034    22.5873    -5.8529 CH2           1 RES     
    1846 CH2         39.9604    21.6666    -7.0346 CH2           1 RES     
    1847 CH2         40.4609    22.5178    -8.2164 CH2           1 RES     
    1848 CH2         40.8179    21.5972    -9.3982 CH2           1 RES     
    1849 CH2         41.3183    22.4484   -10.5800 CH2           1 RES     
    1850 CH2         41.6753    21.5278   -11.7618 CH2           1 RES     
    1851 CH2         42.1758    22.3790   -12.9436 CH2           1 RES     
    1852 CH2         42.5328    21.4583   -14.1253 CH2           1 RES     
    1853 CH2         43.0333    22.3095   -15.3071 CH2           1 RES     
    1854 CH2         43.3902    21.3889   -16.4889 CH2           1 RES     
    1855 CH2         43.8907    22.2401   -17.6707 CH2           1 RES     
    1856 CH2         44.2477    21.3195   -18.8525 CH2           1 RES     
    1857 CH2         44.7482    22.1707   -20.0343 CH2           1 RES     
    1858 O           38.8853    23.8086    -3.5630 O             1 RES     
    1859 C           38.7773    22.5833    -3.5661 C             1 RES     
    1860 OA          38.3406    21.9089    -2.5000 OA            1 RES     
    1861 H           38.1514    22.5433    -1.8047 H             1 RES     
    1862 CH3         34.1466    33.3295   -21.1623 CH3           1 RES     
    1863 CH2         28.1663    32.8142    -4.6711 CH2           1 RES     
    1864 CH2         28.5247    33.7343    -5.8529 CH2           1 RES     
    1865 CH2         29.0239    32.8823    -7.0346 CH2           1 RES     
    1866 CH2         29.3823    33.8023    -8.2164 CH2           1 RES     
    1867 CH2         29.8814    32.9504    -9.3982 CH2           1 RES     
    1868 CH2         30.2399    33.8704   -10.5800 CH2           1 RES     
    1869 CH2         30.7390    33.0184   -11.7618 CH2           1 RES     
    1870 CH2         31.0974    33.9385   -12.9436 CH2           1 RES     
    1871 CH2         31.5966    33.0865   -14.1253 CH2           1 RES     
    1872 CH2         31.9550    34.0066   -15.3071 CH2           1 RES     
    1873 CH2         32.4541    33.1546   -16.4889 CH2           1 RES     
    1874 CH2         32.8126    34.0747   -17.6707 CH2           1 RES     
    1875 CH2         33.3117    33.2227   -18.8525 CH2           1 RES     
    1876 CH2         33.6702    34.1427   -20.0343 CH2           1 RES     
    1877 O           27.6212    34.8255    -3.5630 O             1 RES     
    1878 C           27.7098    33.5987    -3.5661 C             1 RES     
    1879 OA          27.3861    32.8634    -2.5000 OA            1 RES     
    1880 H           27.0983    33.4595    -1.8047 H             1 RES     
    1881 CH3         34.1137    21.0959   -21.1623 CH3           1 RES     
    1882 CH2         28.1431    21.7140    -4.6711 CH2           1 RES     
    1883 CH2         28.6681    22.5503    -5.8529 CH2           1 RES     
    1884 CH2         28.9982    21.6196    -7.0346 CH2           1 RES     
    1885 CH2         29.5232    22.4559    -8.2164 CH2           1 RES     
    1886 CH2         29.8533    21.5253    -9.3982 CH2           1 RES     
    1887 CH2         30.3783    22.3616   -10.5800 CH2           1 RES     
    1888 CH2         30.7084    21.4310   -11.7618 CH2           1 RES     
    1889 CH2         31.2334    22.2672   -12.9436 CH2           1 RES     
    1890 CH2         31.5635    21.3366   -14.1253 CH2           1 RES     
    1891 CH2         32.0885    22.1729   -15.3071 CH2           1 RES     
    1892 CH2         32.4185    21.2423   -16.4889 CH2           1 RES     
    1893 CH2         32.9435    22.0785   -17.6707 CH2           1 RES     
    1894 CH2         33.2736    21.1479   -18.8525 CH2           1 RES     
    1895 CH2         33.7986    21.9842   -20.0343 CH2           1 RES     
    1896 O           27.9859    23.7919    -3.5630 O             1 RES     
    1897 C           27.8423    22.5703    -3.5661 C             1 RES     
    1898 OA          27.3861    21.9089    -2.5000 OA            1 RES     
    1899 H           27.2155    22.5485    -1.8047 H             1 RES     
    1900 CH3          6.5884     3.8915   -21.1623 CH3           1 RES     
    1901 CH2          0.7294     5.1961    -4.6711 CH2           1 RES     
    1902 CH2          1.3476     5.9660    -5.8529 CH2           1 RES     
    1903 CH2          1.5678     5.0034    -7.0346 CH2           1 RES     
    1904 CH2          2.1860     5.7734    -8.2164 CH2           1 RES     
    1905 CH2          2.4062     4.8108    -9.3982 CH2           1 RES     
    1906 CH2          3.0245     5.5808   -10.5800 CH2           1 RES     
    1907 CH2          3.2447     4.6182   -11.7618 CH2           1 RES     
    1908 CH2          3.8629     5.3881   -12.9436 CH2           1 RES     
    1909 CH2          4.0831     4.4256   -14.1253 CH2           1 RES     
    1910 CH2          4.7013     5.1955   -15.3071 CH2           1 RES     
    1911 CH2          4.9215     4.2330   -16.4889 CH2           1 RES     
    1912 CH2          5.5397     5.0029   -17.6707 CH2           1 RES     
    1913 CH2          5.7600     4.0404   -18.8525 CH2           1 RES     
    1914 CH2          6.3782     4.8103   -20.0343 CH2           1 RES     
    1915 O            0.8135     7.2782    -3.5630 O             1 RES     
    1916 C            0.5296     6.0815    -3.5661 C             1 RES     
    1917 OA           0.0000     5.4772    -2.5000 OA            1 RES     
    1918 H           -0.0955     6.1323    -1.8047 H             1 RES     
    1919 CH3         45.1088    32.5288   -21.1623 CH3           1 RES     
    1920 CH2         39.1095    32.7225    -4.6711 CH2           1 RES     
    1921 CH2         39.5740    33.5939    -5.8529 CH2           1 RES     
    1922 CH2         39.9691    32.6890    -7.0346 CH2           1 RES     
    1923 CH2         40.4336    33.5603    -8.2164 CH2           1 RES     
    1924 CH2         40.8287    32.6554    -9.3982 CH2           1 RES     
    1925 CH2         41.2932    33.5268   -10.5800 CH2           1 RES     
    1926 CH2         41.6883    32.6219   -11.7618 CH2           1 RES     
    1927 CH2         42.1528    33.4932   -12.9436 CH2           1 RES     
    1928 CH2         42.5479    32.5883   -14.1253 CH2           1 RES     
    1929 CH2         43.0124    33.4597   -15.3071 CH2           1 RES     
    1930 CH2         43.4076    32.5548   -16.4889 CH2           1 RES     
    1931 CH2         43.8720    33.4261   -17.6707 CH2           1 RES     
    1932 CH2         44.2672    32.5212   -18.8525 CH2           1 RES     
    1933 CH2         44.7316    33.3926   -20.0343 CH2           1 RES     
    1934 O           38.8054    34.7841    -3.5630 O             1 RES     
    1935 C           38.7487    33.5554    -3.5661 C             1 RES     
    1936 OA          38.3406    32.8634    -2.5000 OA            1 RES     
    1937 H           38.1251    33.4893    -1.8047 H             1 RES     
    1938 CH3         39.5475     6.5921   -21.1623 CH3           1 RES     
    1939 CH2         33.6446     5.5034    -4.6711 CH2           1 RES     
    1940 CH2         33.9128     6.4537    -5.8529 CH2           1 RES     
    1941 CH2         34.4916     5.6538    -7.0346 CH2           1 RES     
    1942 CH2         34.7598     6.6041    -8.2164 CH2           1 RES     
    1943 CH2         35.3387     5.8041    -9.3982 CH2           1 RES     
    1944 CH2         35.6069     6.7544   -10.5800 CH2           1 RES     
    1945 CH2         36.1857     5.9544   -11.7618 CH2           1 RES     
    1946 CH2         36.4539     6.9047   -12.9436 CH2           1 RES     
    1947 CH2         37.0327     6.1048   -14.1253 CH2           1 RES     
    1948 CH2         37.3009     7.0551   -15.3071 CH2           1 RES     
    1949 CH2         37.8798     6.2551   -16.4889 CH2           1 RES     
    1950 CH2         38.1480     7.2054   -17.6707 CH2           1 RES     
    1951 CH2         38.7268     6.4054   -18.8525 CH2           1 RES     
    1952 CH2         38.9950     7.3557   -20.0343 CH2           1 RES     
    1953 O           32.9084     7.4529    -3.5630 O             1 RES     
    1954 C           33.1147     6.2404    -3.5661 C             1 RES     
    1955 OA          32.8634     5.4772    -2.5000 OA            1 RES     
    1956 H           32.5195     6.0429    -1.8047 H             1 RES     
    1957 CH3         28.6656    37.8229   -21.1623 CH3           1 RES     
    1958 CH2         22.6737    38.1790    -4.6711 CH2           1 RES     
    1959 CH2         23.1616    39.0374    -5.8529 CH2           1 RES     
    1960 CH2         23.5321    38.1222    -7.0346 CH2           1 RES     
    1961 CH2         24.0200    38.9806    -8.2164 CH2           1 RES     
    1962 CH2         24.3905    38.0653    -9.3982 CH2           1 RES     
    1963 CH2         24.8784    38.9238   -10.5800 CH2           1 RES     
    1964 CH2         25.2489    38.0085   -11.7618 CH2           1 RES     
    1965 CH2         25.7368    38.8670   -12.9436 CH2           1 RES     
    1966 CH2         26.1073    37.9517   -14.1253 CH2           1 RES     
    1967 CH2         26.5952    38.8102   -15.3071 CH2           1 RES     
    1968 CH2         26.9657    37.8949   -16.4889 CH2           1 RES     
    1969 CH2         27.4536    38.7533   -17.6707 CH2           1 RES     
    1970 CH2         27.8241    37.8381   -18.8525 CH2           1 RES     
    1971 CH2         28.3120    38.6965   -20.0343 CH2           1 RES     
    1972 O           22.4256    40.2480    -3.5630 O             1 RES     
    1973 C           22.3357    39.0213    -3.5661 C             1 RES     
    1974 OA          21.9089    38.3406    -2.5000 OA            1 RES     
    1975 H           21.7104    38.9721    -1.8047 H             1 RES     
    1976 CH3         22.9956    -1.6842   -21.1623 CH3           1 RES     
    1977 CH2         17.1568    -0.2921    -4.6711 CH2           1 RES     
    1978 CH2         17.7864     0.4685    -5.8529 CH2           1 RES     
    1979 CH2         17.9922    -0.4972    -7.0346 CH2           1 RES     
    1980 CH2         18.6219     0.2634    -8.2164 CH2           1 RES     
    1981 CH2         18.8277    -0.7024    -9.3982 CH2           1 RES     
    1982 CH2         19.4573     0.0582   -10.5800 CH2           1 RES     
    1983 CH2         19.6631    -0.9075   -11.7618 CH2           1 RES     
    1984 CH2         20.2928    -0.1469   -12.9436 CH2           1 RES     
    1985 CH2         20.4986    -1.1126   -14.1253 CH2           1 RES     
    1986 CH2         21.1282    -0.3521   -15.3071 CH2           1 RES     
    1987 CH2         21.3340    -1.3178   -16.4889 CH2           1 RES     
    1988 CH2         21.9637    -0.5572   -17.6707 CH2           1 RES     
    1989 CH2         22.1695    -1.5229   -18.8525 CH2           1 RES     
    1990 CH2         22.7991    -0.7623   -20.0343 CH2           1 RES     
    1991 O           17.2721     1.7886    -3.5630 O             1 RES     
    1992 C           16.9703     0.5962    -3.5661 C             1 RES     
    1993 OA          16.4317     0.0000    -2.5000 OA            1 RES     
    1994 H           16.3460     0.6564    -1.8047 H             1 RES     
    1995 CH3         28.6675    15.9395   -21.1623 CH3           1 RES     
    1996 CH2         22.6743    16.2730    -4.6711 CH2           1 RES     
    1997 CH2         23.1590    17.1333    -5.8529 CH2           1 RES     
    1998 CH2         23.5329    16.2194    -7.0346 CH2           1 RES     
    1999 CH2         24.0176    17.0797    -8.2164 CH2           1 RES     
    2000 CH2         24.3915    16.1658    -9.3982 CH2           1 RES     
    2001 CH2         24.8762    17.0261   -10.5800 CH2           1 RES     
    2002 CH2         25.2501    16.1123   -11.7618 CH2           1 RES     
    2003 CH2         25.7348    16.9725   -12.9436 CH2           1 RES     
    2004 CH2         26.1087    16.0587   -14.1253 CH2           1 RES     
    2005 CH2         26.5934    16.9190   -15.3071 CH2           1 RES     
    2006 CH2         26.9673    16.0051   -16.4889 CH2           1 RES     
    2007 CH2         27.4520    16.8654   -17.6707 CH2           1 RES     
    2008 CH2         27.8259    15.9515   -18.8525 CH2           1 RES     
    2009 CH2         28.3106    16.8118   -20.0343 CH2           1 RES     
    2010 O           22.4184    18.3411    -3.5630 O             1 RES     
    2011 C           22.3331    17.1141    -3.5661 C             1 RES     
    2012 OA          21.9089    16.4317    -2.5000 OA            1 RES     
    2013 H           21.7081    17.0624    -1.8047 H             1 RES     
    2014 CH3          6.6598    28.6383   -21.1623 CH3           1 RES     
    2015 CH2          0.7806    27.4284    -4.6711 CH2           1 RES     
    2016 CH2          1.0291    28.3840    -5.8529 CH2           1 RES     
    2017 CH2          1.6243    27.5961    -7.0346 CH2           1 RES     
    2018 CH2          1.8729    28.5517    -8.2164 CH2           1 RES     
    2019 CH2          2.4681    27.7639    -9.3982 CH2           1 RES     
    2020 CH2          2.7167    28.7195   -10.5800 CH2           1 RES     
    2021 CH2          3.3118    27.9316   -11.7618 CH2           1 RES     
    2022 CH2          3.5604    28.8872   -12.9436 CH2           1 RES     
    2023 CH2          4.1556    28.0993   -14.1253 CH2           1 RES     
    2024 CH2          4.4042    29.0549   -15.3071 CH2           1 RES     
    2025 CH2          4.9994    28.2670   -16.4889 CH2           1 RES     
    2026 CH2          5.2479    29.2227   -17.6707 CH2           1 RES     
    2027 CH2          5.8431    28.4348   -18.8525 CH2           1 RES     
    2028 CH2          6.0917    29.3904   -20.0343 CH2           1 RES     
    2029 O            0.0044    29.3623    -3.5630 O             1 RES     
    2030 C            0.2356    28.1543    -3.5661 C             1 RES     
    2031 OA           0.0000    27.3861    -2.5000 OA            1 RES     
    2032 H           -0.3554    27.9446    -1.8047 H             1 RES     
    2033 CH3         34.1276     4.7890   -21.1623 CH3           1 RES     
    2034 CH2         28.1466     5.2964    -4.6711 CH2           1 RES     
    2035 CH2         28.6560     6.1422    -5.8529 CH2           1 RES     
    2036 CH2         29.0033     5.2179    -7.0346 CH2           1 RES     
    2037 CH2         29.5127     6.0637    -8.2164 CH2           1 RES     
    2038 CH2         29.8600     5.1394    -9.3982 CH2           1 RES     
    2039 CH2         30.3694     5.9852   -10.5800 CH2           1 RES     
    2040 CH2         30.7167     5.0609   -11.7618 CH2           1 RES     
    2041 CH2         31.2261     5.9068   -12.9436 CH2           1 RES     
    2042 CH2         31.5733     4.9824   -14.1253 CH2           1 RES     
    2043 CH2         32.0828     5.8283   -15.3071 CH2           1 RES     
    2044 CH2         32.4300     4.9039   -16.4889 CH2           1 RES     
    2045 CH2         32.9395     5.7498   -17.6707 CH2           1 RES     
    2046 CH2         33.2867     4.8254   -18.8525 CH2           1 RES     
    2047 CH2         33.7961     5.6713   -20.0343 CH2           1 RES     
    2048 O           27.9509     7.3710    -3.5630 O             1 RES     
    2049 C           27.8299     6.1470    -3.5661 C             1 RES     
    2050 OA          27.3861     5.4772    -2.5000 OA            1 RES     
    2051 H           27.2037     6.1136    -1.8047 H             1 RES     
    2052 CH3          6.7255    10.1243   -21.1623 CH3           1 RES     
    2053 CH2          0.7565    10.7576    -4.6711 CH2           1 RES     
    2054 CH2          1.2837    11.5925    -5.8529 CH2           1 RES     
    2055 CH2          1.6113    10.6611    -7.0346 CH2           1 RES     
    2056 CH2          2.1385    11.4960    -8.2164 CH2           1 RES     
    2057 CH2          2.4662    10.5646    -9.3982 CH2           1 RES     
    2058 CH2          2.9933    11.3995   -10.5800 CH2           1 RES     
    2059 CH2          3.3210    10.4680   -11.7618 CH2           1 RES     
    2060 CH2          3.8482    11.3030   -12.9436 CH2           1 RES     
    2061 CH2          4.1759    10.3715   -14.1253 CH2           1 RES     
    2062 CH2          4.7030    11.2064   -15.3071 CH2           1 RES     
    2063 CH2          5.0307    10.2750   -16.4889 CH2           1 RES     
    2064 CH2          5.5578    11.1099   -17.6707 CH2           1 RES     
    2065 CH2          5.8855    10.1785   -18.8525 CH2           1 RES     
    2066 CH2          6.4127    11.0134   -20.0343 CH2           1 RES     
    2067 O            0.6045    12.8359    -3.5630 O             1 RES     
    2068 C            0.4578    11.6147    -3.5661 C             1 RES     
    2069 OA           0.0000    10.9545    -2.5000 OA            1 RES     
    2070 H           -0.1690    11.5945    -1.8047 H             1 RES     
    2071 CH3         28.5268     9.4967   -21.1623 CH3           1 RES     
    2072 CH2         22.6436    10.6875    -4.6711 CH2           1 RES     
    2073 CH2         23.2468    11.4692    -5.8529 CH2           1 RES     
    2074 CH2         23.4856    10.5111    -7.0346 CH2           1 RES     
    2075 CH2         24.0888    11.2929    -8.2164 CH2           1 RES     
    2076 CH2         24.3276    10.3348    -9.3982 CH2           1 RES     
    2077 CH2         24.9308    11.1166   -10.5800 CH2           1 RES     
    2078 CH2         25.1696    10.1585   -11.7618 CH2           1 RES     
    2079 CH2         25.7728    10.9402   -12.9436 CH2           1 RES     
    2080 CH2         26.0116     9.9821   -14.1253 CH2           1 RES     
    2081 CH2         26.6148    10.7639   -15.3071 CH2           1 RES     
    2082 CH2         26.8536     9.8058   -16.4889 CH2           1 RES     
    2083 CH2         27.4568    10.5876   -17.6707 CH2           1 RES     
    2084 CH2         27.6956     9.6295   -18.8525 CH2           1 RES     
    2085 CH2         28.2988    10.4112   -20.0343 CH2           1 RES     
    2086 O           22.6874    12.7709    -3.5630 O             1 RES     
    2087 C           22.4267    11.5688    -3.5661 C             1 RES     
    2088 OA          21.9089    10.9545    -2.5000 OA            1 RES     
    2089 H           21.8007    11.6075    -1.8047 H             1 RES     
    2090 CH3         23.1636    26.6104   -21.1623 CH3           1 RES     
    2091 CH2         17.1898    27.1954    -4.6711 CH2           1 RES     
    2092 CH2         17.7101    28.0346    -5.8529 CH2           1 RES     
    2093 CH2         18.0453    27.1058    -7.0346 CH2           1 RES     
    2094 CH2         18.5657    27.9450    -8.2164 CH2           1 RES     
    2095 CH2         18.9009    27.0162    -9.3982 CH2           1 RES     
    2096 CH2         19.4213    27.8554   -10.5800 CH2           1 RES     
    2097 CH2         19.7565    26.9266   -11.7618 CH2           1 RES     
    2098 CH2         20.2769    27.7658   -12.9436 CH2           1 RES     
    2099 CH2         20.6121    26.8370   -14.1253 CH2           1 RES     
    2100 CH2         21.1325    27.6762   -15.3071 CH2           1 RES     
    2101 CH2         21.4677    26.7474   -16.4889 CH2           1 RES     
    2102 CH2         21.9881    27.5866   -17.6707 CH2           1 RES     
    2103 CH2         22.3233    26.6578   -18.8525 CH2           1 RES     
    2104 CH2         22.8437    27.4970   -20.0343 CH2           1 RES     
    2105 O           17.0209    29.2724    -3.5630 O             1 RES     
    2106 C           16.8841    28.0501    -3.5661 C             1 RES     
    2107 OA          16.4317    27.3861    -2.5000 OA            1 RES     
    2108 H           16.2575    28.0248    -1.8047 H             1 RES     
    2109 CH3         12.2458    33.1921   -21.1623 CH3           1 RES     
    2110 CH2          6.2562    32.7984    -4.6711 CH2           1 RES     
    2111 CH2          6.6333    33.7110    -5.8529 CH2           1 RES     
    2112 CH2          7.1150    32.8490    -7.0346 CH2           1 RES     
    2113 CH2          7.4921    33.7616    -8.2164 CH2           1 RES     
    2114 CH2          7.9738    32.8997    -9.3982 CH2           1 RES     
    2115 CH2          8.3508    33.8123   -10.5800 CH2           1 RES     
    2116 CH2          8.8325    32.9503   -11.7618 CH2           1 RES     
    2117 CH2          9.2096    33.8629   -12.9436 CH2           1 RES     
    2118 CH2          9.6913    33.0010   -14.1253 CH2           1 RES     
    2119 CH2         10.0684    33.9136   -15.3071 CH2           1 RES     
    2120 CH2         10.5501    33.0517   -16.4889 CH2           1 RES     
    2121 CH2         10.9272    33.9642   -17.6707 CH2           1 RES     
    2122 CH2         11.4089    33.1023   -18.8525 CH2           1 RES     
    2123 CH2         11.7859    34.0149   -20.0343 CH2           1 RES     
    2124 O            5.7521    34.8204    -3.5630 O             1 RES     
    2125 C            5.8158    33.5920    -3.5661 C             1 RES     
    2126 OA           5.4772    32.8634    -2.5000 OA            1 RES     
    2127 H            5.2016    33.4652    -1.8047 H             1 RES     
    2128 CH3         17.6921    37.6155   -21.1623 CH3           1 RES     
    2129 CH2         11.7139    38.1556    -4.6711 CH2           1 RES     
    2130 CH2         12.2280    38.9986    -5.8529 CH2           1 RES     
    2131 CH2         12.5702    38.0724    -7.0346 CH2           1 RES     
    2132 CH2         13.0842    38.9154    -8.2164 CH2           1 RES     
    2133 CH2         13.4264    37.9892    -9.3982 CH2           1 RES     
    2134 CH2         13.9405    38.8323   -10.5800 CH2           1 RES     
    2135 CH2         14.2827    37.9061   -11.7618 CH2           1 RES     
    2136 CH2         14.7967    38.7491   -12.9436 CH2           1 RES     
    2137 CH2         15.1389    37.8229   -14.1253 CH2           1 RES     
    2138 CH2         15.6529    38.6659   -15.3071 CH2           1 RES     
    2139 CH2         15.9951    37.7397   -16.4889 CH2           1 RES     
    2140 CH2         16.5092    38.5828   -17.6707 CH2           1 RES     
    2141 CH2         16.8514    37.6566   -18.8525 CH2           1 RES     
    2142 CH2         17.3654    38.4996   -20.0343 CH2           1 RES     
    2143 O           11.5295    40.2313    -3.5630 O             1 RES     
    2144 C           11.4019    39.0079    -3.5661 C             1 RES     
    2145 OA          10.9545    38.3406    -2.5000 OA            1 RES     
    2146 H           10.7755    38.9779    -1.8047 H             1 RES     
    2147 CH3         34.1605    16.6016   -21.1623 CH3           1 RES     
    2148 CH2         28.1634    16.3484    -4.6711 CH2           1 RES     
    2149 CH2         28.5617    17.2519    -5.8529 CH2           1 RES     
    2150 CH2         29.0231    16.3789    -7.0346 CH2           1 RES     
    2151 CH2         29.4215    17.2824    -8.2164 CH2           1 RES     
    2152 CH2         29.8828    16.4094    -9.3982 CH2           1 RES     
    2153 CH2         30.2812    17.3129   -10.5800 CH2           1 RES     
    2154 CH2         30.7426    16.4399   -11.7618 CH2           1 RES     
    2155 CH2         31.1409    17.3434   -12.9436 CH2           1 RES     
    2156 CH2         31.6023    16.4704   -14.1253 CH2           1 RES     
    2157 CH2         32.0007    17.3739   -15.3071 CH2           1 RES     
    2158 CH2         32.4620    16.5009   -16.4889 CH2           1 RES     
    2159 CH2         32.8604    17.4044   -17.6707 CH2           1 RES     
    2160 CH2         33.3218    16.5314   -18.8525 CH2           1 RES     
    2161 CH2         33.7201    17.4349   -20.0343 CH2           1 RES     
    2162 O           27.7068    18.3817    -3.5630 O             1 RES     
    2163 C           27.7417    17.1522    -3.5661 C             1 RES     
    2164 OA          27.3861    16.4317    -2.5000 OA            1 RES     
    2165 H           27.1247    17.0398    -1.8047 H             1 RES     
    2166 CH3         45.0031     1.2374   -21.1623 CH3           1 RES     
    2167 CH2         39.1212     0.0405    -4.6711 CH2           1 RES     
    2168 CH2         39.3719     0.9956    -5.8529 CH2           1 RES     
    2169 CH2         39.9654     0.2064    -7.0346 CH2           1 RES     
    2170 CH2         40.2161     1.1615    -8.2164 CH2           1 RES     
    2171 CH2         40.8095     0.3723    -9.3982 CH2           1 RES     
    2172 CH2         41.0602     1.3273   -10.5800 CH2           1 RES     
    2173 CH2         41.6536     0.5381   -11.7618 CH2           1 RES     
    2174 CH2         41.9043     1.4932   -12.9436 CH2           1 RES     
    2175 CH2         42.4977     0.7040   -14.1253 CH2           1 RES     
    2176 CH2         42.7484     1.6590   -15.3071 CH2           1 RES     
    2177 CH2         43.3419     0.8698   -16.4889 CH2           1 RES     
    2178 CH2         43.5926     1.8249   -17.6707 CH2           1 RES     
    2179 CH2         44.1860     1.0357   -18.8525 CH2           1 RES     
    2180 CH2         44.4367     1.9908   -20.0343 CH2           1 RES     
    2181 O           38.3493     1.9762    -3.5630 O             1 RES     
    2182 C           38.5779     0.7676    -3.5661 C             1 RES     
    2183 OA          38.3406     0.0000    -2.5000 OA            1 RES     
    2184 H           37.9864     0.5592    -1.8047 H             1 RES     
    2185 CH3         12.2363    38.8263   -21.1623 CH3           1 RES     
    2186 CH2          6.2575    38.2937    -4.6711 CH2           1 RES     
    2187 CH2          6.6133    39.2148    -5.8529 CH2           1 RES     
    2188 CH2          7.1149    38.3643    -7.0346 CH2           1 RES     
    2189 CH2          7.4707    39.2853    -8.2164 CH2           1 RES     
    2190 CH2          7.9723    38.4348    -9.3982 CH2           1 RES     
    2191 CH2          8.3280    39.3559   -10.5800 CH2           1 RES     
    2192 CH2          8.8296    38.5054   -11.7618 CH2           1 RES     
    2193 CH2          9.1854    39.4265   -12.9436 CH2           1 RES     
    2194 CH2          9.6870    38.5759   -14.1253 CH2           1 RES     
    2195 CH2         10.0428    39.4970   -15.3071 CH2           1 RES     
    2196 CH2         10.5444    38.6465   -16.4889 CH2           1 RES     
    2197 CH2         10.9002    39.5676   -17.6707 CH2           1 RES     
    2198 CH2         11.4017    38.7171   -18.8525 CH2           1 RES     
    2199 CH2         11.7575    39.6382   -20.0343 CH2           1 RES     
    2200 O            5.7066    40.3034    -3.5630 O             1 RES     
    2201 C            5.7988    39.0769    -3.5661 C             1 RES     
    2202 OA           5.4772    38.3406    -2.5000 OA            1 RES     
    2203 H            5.1877    38.9359    -1.8047 H             1 RES     
    2204 CH3         34.1497    37.9228   -21.1623 CH3           1 RES     
    2205 CH2         28.1533    38.1903    -4.6711 CH2           1 RES     
    2206 CH2         28.6284    39.0559    -5.8529 CH2           1 RES     
    2207 CH2         29.0124    38.1462    -7.0346 CH2           1 RES     
    2208 CH2         29.4875    39.0118    -8.2164 CH2           1 RES     
    2209 CH2         29.8715    38.1021    -9.3982 CH2           1 RES     
    2210 CH2         30.3467    38.9676   -10.5800 CH2           1 RES     
    2211 CH2         30.7307    38.0579   -11.7618 CH2           1 RES     
    2212 CH2         31.2058    38.9235   -12.9436 CH2           1 RES     
    2213 CH2         31.5898    38.0138   -14.1253 CH2           1 RES     
    2214 CH2         32.0649    38.8794   -15.3071 CH2           1 RES     
    2215 CH2         32.4489    37.9697   -16.4889 CH2           1 RES     
    2216 CH2         32.9241    38.8353   -17.6707 CH2           1 RES     
    2217 CH2         33.3081    37.9256   -18.8525 CH2           1 RES     
    2218 CH2         33.7832    38.7912   -20.0343 CH2           1 RES     
    2219 O           27.8746    40.2555    -3.5630 O             1 RES     
    2220 C           27.8028    39.0276    -3.5661 C             1 RES     
    2221 OA          27.3861    38.3406    -2.5000 OA            1 RES     
    2222 H           27.1784    38.9691    -1.8047 H             1 RES     
    2223 CH3         23.0275    14.8774   -21.1623 CH3           1 RES     
    2224 CH2         17.1624    16.1540    -4.6711 CH2           1 RES     
    2225 CH2         17.7769    16.9269    -5.8529 CH2           1 RES     
    2226 CH2         18.0017    15.9654    -7.0346 CH2           1 RES     
    2227 CH2         18.6163    16.7382    -8.2164 CH2           1 RES     
    2228 CH2         18.8411    15.7768    -9.3982 CH2           1 RES     
    2229 CH2         19.4556    16.5496   -10.5800 CH2           1 RES     
    2230 CH2         19.6804    15.5882   -11.7618 CH2           1 RES     
    2231 CH2         20.2949    16.3610   -12.9436 CH2           1 RES     
    2232 CH2         20.5197    15.3995   -14.1253 CH2           1 RES     
    2233 CH2         21.1343    16.1724   -15.3071 CH2           1 RES     
    2234 CH2         21.3591    15.2109   -16.4889 CH2           1 RES     
    2235 CH2         21.9736    15.9838   -17.6707 CH2           1 RES     
    2236 CH2         22.1984    15.0223   -18.8525 CH2           1 RES     
    2237 CH2         22.8130    15.7952   -20.0343 CH2           1 RES     
    2238 O           17.2366    18.2366    -3.5630 O             1 RES     
    2239 C           16.9584    17.0384    -3.5661 C             1 RES     
    2240 OA          16.4317    16.4317    -2.5000 OA            1 RES     
    2241 H           16.3331    17.0863    -1.8047 H             1 RES     
    2242 CH3         23.1286    37.3052   -21.1623 CH3           1 RES     
    2243 CH2         17.1818    38.1207    -4.6711 CH2           1 RES     
    2244 CH2         17.7342    38.9391    -5.8529 CH2           1 RES     
    2245 CH2         18.0333    37.9981    -7.0346 CH2           1 RES     
    2246 CH2         18.5857    38.8165    -8.2164 CH2           1 RES     
    2247 CH2         18.8848    37.8755    -9.3982 CH2           1 RES     
    2248 CH2         19.4372    38.6939   -10.5800 CH2           1 RES     
    2249 CH2         19.7363    37.7529   -11.7618 CH2           1 RES     
    2250 CH2         20.2887    38.5713   -12.9436 CH2           1 RES     
    2251 CH2         20.5878    37.6303   -14.1253 CH2           1 RES     
    2252 CH2         21.1402    38.4487   -15.3071 CH2           1 RES     
    2253 CH2         21.4393    37.5077   -16.4889 CH2           1 RES     
    2254 CH2         21.9917    38.3261   -17.6707 CH2           1 RES     
    2255 CH2         22.2907    37.3851   -18.8525 CH2           1 RES     
    2256 CH2         22.8432    38.2035   -20.0343 CH2           1 RES     
    2257 O           17.0934    40.2027    -3.5630 O             1 RES     
    2258 C           16.9095    38.9865    -3.5661 C             1 RES     
    2259 OA          16.4317    38.3406    -2.5000 OA            1 RES     
    2260 H           16.2823    38.9855    -1.8047 H             1 RES     
    2261 CH3         34.1034    11.8489   -21.1623 CH3           1 RES     
    2262 CH2         28.1678    10.9549    -4.6711 CH2           1 RES     
    2263 CH2         28.4671    11.8959    -5.8529 CH2           1 RES     
    2264 CH2         29.0193    11.0773    -7.0346 CH2           1 RES     
    2265 CH2         29.3187    12.0183    -8.2164 CH2           1 RES     
    2266 CH2         29.8709    11.1997    -9.3982 CH2           1 RES     
    2267 CH2         30.1702    12.1407   -10.5800 CH2           1 RES     
    2268 CH2         30.7224    11.3221   -11.7618 CH2           1 RES     
    2269 CH2         31.0217    12.2631   -12.9436 CH2           1 RES     
    2270 CH2         31.5739    11.4445   -14.1253 CH2           1 RES     
    2271 CH2         31.8732    12.3855   -15.3071 CH2           1 RES     
    2272 CH2         32.4254    11.5669   -16.4889 CH2           1 RES     
    2273 CH2         32.7247    12.5078   -17.6707 CH2           1 RES     
    2274 CH2         33.2769    11.6893   -18.8525 CH2           1 RES     
    2275 CH2         33.5762    12.6302   -20.0343 CH2           1 RES     
    2276 O           27.4961    12.9276    -3.5630 O             1 RES     
    2277 C           27.6625    11.7089    -3.5661 C             1 RES     
    2278 OA          27.3861    10.9545    -2.5000 OA            1 RES     
    2279 H           27.0611    11.5311    -1.8047 H             1 RES     
    2280 CH3         28.5944    -1.1067   -21.1623 CH3           1 RES     
    2281 CH2         22.6567    -0.2279    -4.6711 CH2           1 RES     
    2282 CH2         23.2178     0.5846    -5.8529 CH2           1 RES     
    2283 CH2         23.5068    -0.3596    -7.0346 CH2           1 RES     
    2284 CH2         24.0679     0.4529    -8.2164 CH2           1 RES     
    2285 CH2         24.3569    -0.4912    -9.3982 CH2           1 RES     
    2286 CH2         24.9180     0.3213   -10.5800 CH2           1 RES     
    2287 CH2         25.2070    -0.6229   -11.7618 CH2           1 RES     
    2288 CH2         25.7682     0.1896   -12.9436 CH2           1 RES     
    2289 CH2         26.0572    -0.7546   -14.1253 CH2           1 RES     
    2290 CH2         26.6183     0.0579   -15.3071 CH2           1 RES     
    2291 CH2         26.9073    -0.8863   -16.4889 CH2           1 RES     
    2292 CH2         27.4684    -0.0738   -17.6707 CH2           1 RES     
    2293 CH2         27.7574    -1.0179   -18.8525 CH2           1 RES     
    2294 CH2         28.3186    -0.2055   -20.0343 CH2           1 RES     
    2295 O           22.5905     1.8550    -3.5630 O             1 RES     
    2296 C           22.3936     0.6408    -3.5661 C             1 RES     
    2297 OA          21.9089     0.0000    -2.5000 OA            1 RES     
    2298 H           21.7664     0.6465    -1.8047 H             1 RES     
    2299 CH3          6.7258    32.0356   -21.1623 CH3           1 RES     
    2300 CH2          0.7566    32.6668    -4.6711 CH2           1 RES     
    2301 CH2          1.2834    33.5019    -5.8529 CH2           1 RES     
    2302 CH2          1.6115    32.5706    -7.0346 CH2           1 RES     
    2303 CH2          2.1383    33.4057    -8.2164 CH2           1 RES     
    2304 CH2          2.4663    32.4744    -9.3982 CH2           1 RES     
    2305 CH2          2.9932    33.3095   -10.5800 CH2           1 RES     
    2306 CH2          3.3212    32.3781   -11.7618 CH2           1 RES     
    2307 CH2          3.8480    33.2133   -12.9436 CH2           1 RES     
    2308 CH2          4.1761    32.2819   -14.1253 CH2           1 RES     
    2309 CH2          4.7029    33.1171   -15.3071 CH2           1 RES     
    2310 CH2          5.0309    32.1857   -16.4889 CH2           1 RES     
    2311 CH2          5.5578    33.0208   -17.6707 CH2           1 RES     
    2312 CH2          5.8858    32.0895   -18.8525 CH2           1 RES     
    2313 CH2          6.4126    32.9246   -20.0343 CH2           1 RES     
    2314 O            0.6038    34.7451    -3.5630 O             1 RES     
    2315 C            0.4576    33.5238    -3.5661 C             1 RES     
    2316 OA           0.0000    32.8634    -2.5000 OA            1 RES     
    2317 H           -0.1692    33.5033    -1.8047 H             1 RES     
    2318 CH3         45.0012    12.2022   -21.1623 CH3           1 RES     
    2319 CH2         39.1212    10.9962    -4.6711 CH2           1 RES     
    2320 CH2         39.3704    11.9516    -5.8529 CH2           1 RES     
    2321 CH2         39.9650    11.1634    -7.0346 CH2           1 RES     
    2322 CH2         40.2143    12.1188    -8.2164 CH2           1 RES     
    2323 CH2         40.8089    11.3305    -9.3982 CH2           1 RES     
    2324 CH2         41.0581    12.2860   -10.5800 CH2           1 RES     
    2325 CH2         41.6528    11.4977   -11.7618 CH2           1 RES     
    2326 CH2         41.9020    12.4532   -12.9436 CH2           1 RES     
    2327 CH2         42.4966    11.6649   -14.1253 CH2           1 RES     
    2328 CH2         42.7459    12.6203   -15.3071 CH2           1 RES     
    2329 CH2         43.3405    11.8320   -16.4889 CH2           1 RES     
    2330 CH2         43.5897    12.7875   -17.6707 CH2           1 RES     
    2331 CH2         44.1844    11.9992   -18.8525 CH2           1 RES     
    2332 CH2         44.4336    12.9547   -20.0343 CH2           1 RES     
    2333 O           38.3463    12.9307    -3.5630 O             1 RES     
    2334 C           38.5767    11.7224    -3.5661 C             1 RES     
    2335 OA          38.3406    10.9545    -2.5000 OA            1 RES     
    2336 H           37.9855    11.5131    -1.8047 H             1 RES     
    2337 CH3          5.4357    21.9089   -56.7654 CH3           1 RES     
    2338 CH3          6.6826    22.7973   -58.5512 CH3           1 RES     
    2339 CH3          4.6916    23.5633   -58.0694 CH3           1 RES     
    2340 NL           5.7973    23.0311   -57.5746 NL            1 RES     
    2341 CH2          6.2598    24.0417   -56.7359 CH2           1 RES     
    2342 CH2          7.5408    23.3924   -56.1801 CH2           1 RES     
    2343 OA           8.3173    25.0458   -52.7280 OA            1 RES     
    2344 P            7.6252    24.0518   -53.7735 P             1 RES     
    2345 OM           8.0075    22.5654   -53.3212 OM            1 RES     
    2346 OM           6.0577    24.3715   -53.7477 OM            1 RES     
    2347 OA           8.2038    24.3304   -55.2389 OA            1 RES     
    2348 CH2          7.7576    24.7592   -51.3827 CH2           1 RES     
    2349 CH1          8.4018    25.6993   -50.3470 CH1           1 RES     
    2350 OE           7.3574    26.5121   -49.7070 OE            1 RES     
    2351 C            7.6758    25.9860   -48.3389 C             1 RES     
    2352 O            8.5562    25.1617   -48.0969 O             1 RES     
    2353 CH2          6.6307    26.5003   -47.5529 CH2           1 RES     
    2354 CH2          6.8941    25.8409   -46.1864 CH2           1 RES     
    2355 CH2          5.7296    26.1575   -45.2298 CH2           1 RES     
    2356 CH2          5.9930    25.4981   -43.8632 CH2           1 RES     
    2357 CH2          4.8284    25.8148   -42.9066 CH2           1 RES     
    2358 CH2          5.0918    25.1554   -41.5401 CH2           1 RES     
    2359 CH2          3.9273    25.4721   -40.5835 CH2           1 RES     
    2360 CH2          4.1907    24.8127   -39.2169 CH2           1 RES     
    2361 CH2          3.0262    25.1294   -38.2603 CH2           1 RES     
    2362 CH2          3.2896    24.4700   -36.8938 CH2           1 RES     
    2363 CH2          2.1250    24.7866   -35.9372 CH2           1 RES     
    2364 CH2          2.3884    24.1272   -34.5707 CH2           1 RES     
    2365 CH2          1.2239    24.4439   -33.6140 CH2           1 RES     
    2366 CH2          1.4873    23.7845   -32.2475 CH2           1 RES     
    2367 CH2          0.3228    24.1012   -31.2909 CH2           1 RES     
    2368 CH2          0.5862    23.4418   -29.9244 CH2           1 RES     
    2369 CH3         -0.5254    23.7441   -29.0112 CH3           1 RES     
    2370 CH2          9.1297    24.8632   -49.2780 CH2           1 RES     
    2371 OE          10.2467    24.1468   -49.8972 OE            1 RES     
    2372 C           10.7819    23.4770   -48.6664 C             1 RES     
    2373 O           11.7593    22.7305   -48.6486 O             1 RES     
    2374 CH2          9.7995    23.7593   -47.7022 CH2           1 RES     
    2375 CH2         10.2927    22.9524   -46.4867 CH2           1 RES     
    2376 CH2          9.2323    23.0035   -45.3711 CH2           1 RES     
    2377 CH2          9.7255    22.1966   -44.1557 CH2           1 RES     
    2378 CH2          8.6651    22.2477   -43.0401 CH2           1 RES     
    2379 CH2          9.1583    21.4408   -41.8247 CH2           1 RES     
    2380 CH2          8.0979    21.4920   -40.7091 CH2           1 RES     
    2381 CH2          8.5912    20.6851   -39.4937 CH2           1 RES     
    2382 CH2          7.5308    20.7362   -38.3781 CH2           1 RES     
    2383 CH2          8.0240    19.9293   -37.1627 CH2           1 RES     
    2384 CH2          6.9636    19.9804   -36.0471 CH2           1 RES     
    2385 CH2          7.4568    19.1735   -34.8317 CH2           1 RES     
    2386 CH2          6.3964    19.2247   -33.7161 CH2           1 RES     
    2387 CH2          6.8896    18.4178   -32.5006 CH2           1 RES     
    2388 CH2          5.8292    18.4689   -31.3850 CH2           1 RES     
    2389 CH2          6.3225    17.6620   -30.1696 CH2           1 RES     
    2390 CH3          5.3103    17.7108   -29.1047 CH3           1 RES     
    2391 CH3         10.9129    27.3861   -56.7654 CH3           1 RES     
    2392 CH3         12.1502    28.2879   -58.5512 CH3           1 RES     
    2393 CH3         10.1511    29.0324   -58.0694 CH3           1 RES     
    2394 NL          11.2625    28.5122   -57.5746 NL            1 RES     
    2395 CH2         11.7140    29.5277   -56.7359 CH2           1 RES     
    2396 CH2         13.0019    28.8922   -56.1801 CH2           1 RES     
    2397 OA          13.7605    30.5539   -52.7280 OA            1 RES     
    2398 P           13.0792    29.5525   -53.7735 P             1 RES     
    2399 OM          13.4775    28.0703   -53.3212 OM            1 RES     
    2400 OM          11.5083    29.8553   -53.7477 OM            1 RES     
    2401 OA          13.6548    29.8373   -55.2389 OA            1 RES     
    2402 CH2         13.2039    30.2613   -51.3827 CH2           1 RES     
    2403 CH1         13.8380    31.2083   -50.3470 CH1           1 RES     
    2404 OE          12.7849    32.0098   -49.7070 OE            1 RES     
    2405 C           13.1090    31.4871   -48.3389 C             1 RES     
    2406 O           13.9982    30.6724   -48.0969 O             1 RES     
    2407 CH2         12.0584    31.9901   -47.5529 CH2           1 RES     
    2408 CH2         12.3289    31.3336   -46.1864 CH2           1 RES     
    2409 CH2         11.1610    31.6377   -45.2298 CH2           1 RES     
    2410 CH2         11.4315    30.9811   -43.8632 CH2           1 RES     
    2411 CH2         10.2636    31.2853   -42.9066 CH2           1 RES     
    2412 CH2         10.5341    30.6287   -41.5401 CH2           1 RES     
    2413 CH2          9.3662    30.9329   -40.5835 CH2           1 RES     
    2414 CH2          9.6367    30.2763   -39.2169 CH2           1 RES     
    2415 CH2          8.4688    30.5804   -38.2603 CH2           1 RES     
    2416 CH2          8.7393    29.9239   -36.8938 CH2           1 RES     
    2417 CH2          7.5714    30.2280   -35.9372 CH2           1 RES     
    2418 CH2          7.8419    29.5715   -34.5707 CH2           1 RES     
    2419 CH2          6.6740    29.8756   -33.6140 CH2           1 RES     
    2420 CH2          6.9445    29.2191   -32.2475 CH2           1 RES     
    2421 CH2          5.7766    29.5232   -31.2909 CH2           1 RES     
    2422 CH2          6.0472    28.8666   -29.9244 CH2           1 RES     
    2423 CH3          4.9323    29.1569   -29.0112 CH3           1 RES     
    2424 CH2         14.5748    30.3800   -49.2780 CH2           1 RES     
    2425 OE          15.6995    29.6757   -49.8972 OE            1 RES     
    2426 C           16.2419    29.0117   -48.6664 C             1 RES     
    2427 O           17.2273    28.2758   -48.6486 O             1 RES     
    2428 CH2         15.2565    29.2834   -47.7022 CH2           1 RES     
    2429 CH2         15.7584    28.4819   -46.4867 CH2           1 RES     
    2430 CH2         14.6975    28.5216   -45.3711 CH2           1 RES     
    2431 CH2         15.1994    27.7200   -44.1557 CH2           1 RES     
    2432 CH2         14.1385    27.7597   -43.0401 CH2           1 RES     
    2433 CH2         14.6404    26.9582   -41.8247 CH2           1 RES     
    2434 CH2         13.5795    26.9979   -40.7091 CH2           1 RES     
    2435 CH2         14.0814    26.1964   -39.4937 CH2           1 RES     
    2436 CH2         13.0205    26.2361   -38.3781 CH2           1 RES     
    2437 CH2         13.5224    25.4345   -37.1627 CH2           1 RES     
    2438 CH2         12.4615    25.4742   -36.0471 CH2           1 RES     
    2439 CH2         12.9634    24.6727   -34.8317 CH2           1 RES     
    2440 CH2         11.9025    24.7124   -33.7161 CH2           1 RES     
    2441 CH2         12.4044    23.9109   -32.5006 CH2           1 RES     
    2442 CH2         11.3435    23.9506   -31.3850 CH2           1 RES     
    2443 CH2         11.8454    23.1490   -30.1696 CH2           1 RES     
    2444 CH3         10.8328    23.1869   -29.1047 CH3           1 RES     
    2445 CH3         32.8218    21.9089   -56.7654 CH3           1 RES     
    2446 CH3         33.8859    23.0097   -58.5512 CH3           1 RES     
    2447 CH3         31.7886    23.4000   -58.0694 CH3           1 RES     
    2448 NL          32.9728    23.0783   -57.5746 NL            1 RES     
    2449 CH2         33.2433    24.1562   -56.7359 CH2           1 RES     
    2450 CH2         34.6212    23.7513   -56.1801 CH2           1 RES     
    2451 OA          35.0832    25.5185   -52.7280 OA            1 RES     
    2452 P           34.5840    24.4150   -53.7735 P             1 RES     
    2453 OM          35.2309    23.0232   -53.3212 OM            1 RES     
    2454 OM          32.9844    24.4436   -53.7477 OM            1 RES     
    2455 OA          35.1021    24.7945   -55.2389 OA            1 RES     
    2456 CH2         34.5852    25.1347   -51.3827 CH2           1 RES     
    2457 CH1         35.0473    26.1766   -50.3470 CH1           1 RES     
    2458 OE          33.8722    26.7853   -49.7070 OE            1 RES     
    2459 C           34.2812    26.3260   -48.3389 C             1 RES     
    2460 O           35.2970    25.6761   -48.0969 O             1 RES     
    2461 CH2         33.1598    26.6412   -47.5529 CH2           1 RES     
    2462 CH2         33.5390    26.0408   -46.1864 CH2           1 RES     
    2463 CH2         32.3362    26.1399   -45.2298 CH2           1 RES     
    2464 CH2         32.7155    25.5396   -43.8632 CH2           1 RES     
    2465 CH2         31.5127    25.6387   -42.9066 CH2           1 RES     
    2466 CH2         31.8919    25.0383   -41.5401 CH2           1 RES     
    2467 CH2         30.6891    25.1374   -40.5835 CH2           1 RES     
    2468 CH2         31.0683    24.5371   -39.2169 CH2           1 RES     
    2469 CH2         29.8656    24.6361   -38.2603 CH2           1 RES     
    2470 CH2         30.2448    24.0358   -36.8938 CH2           1 RES     
    2471 CH2         29.0420    24.1349   -35.9372 CH2           1 RES     
    2472 CH2         29.4212    23.5345   -34.5707 CH2           1 RES     
    2473 CH2         28.2185    23.6336   -33.6140 CH2           1 RES     
    2474 CH2         28.5977    23.0333   -32.2475 CH2           1 RES     
    2475 CH2         27.3949    23.1324   -31.2909 CH2           1 RES     
    2476 CH2         27.7741    22.5320   -29.9244 CH2           1 RES     
    2477 CH3         26.6260    22.6266   -29.0112 CH3           1 RES     
    2478 CH2         35.9153    25.4871   -49.2780 CH2           1 RES     
    2479 OE          37.1443    24.9863   -49.8972 OE            1 RES     
    2480 C           37.7926    24.4253   -48.6664 C             1 RES     
    2481 O           38.8897    23.8695   -48.6486 O             1 RES     
    2482 CH2         36.7751    24.5238   -47.7022 CH2           1 RES     
    2483 CH2         37.4072    23.8203   -46.4867 CH2           1 RES     
    2484 CH2         36.3553    23.6773   -45.3711 CH2           1 RES     
    2485 CH2         36.9873    22.9738   -44.1557 CH2           1 RES     
    2486 CH2         35.9354    22.8308   -43.0401 CH2           1 RES     
    2487 CH2         36.5674    22.1273   -41.8247 CH2           1 RES     
    2488 CH2         35.5155    21.9843   -40.7091 CH2           1 RES     
    2489 CH2         36.1475    21.2808   -39.4937 CH2           1 RES     
    2490 CH2         35.0956    21.1378   -38.3781 CH2           1 RES     
    2491 CH2         35.7276    20.4343   -37.1627 CH2           1 RES     
    2492 CH2         34.6757    20.2913   -36.0471 CH2           1 RES     
    2493 CH2         35.3077    19.5878   -34.8317 CH2           1 RES     
    2494 CH2         34.2558    19.4448   -33.7161 CH2           1 RES     
    2495 CH2         34.8878    18.7413   -32.5006 CH2           1 RES     
    2496 CH2         33.8359    18.5983   -31.3850 CH2           1 RES     
    2497 CH2         34.4679    17.8948   -30.1696 CH2           1 RES     
    2498 CH3         33.4638    17.7583   -29.1047 CH3           1 RES     
    2499 CH3          5.4357    38.3406   -56.7654 CH3           1 RES     
    2500 CH3          6.5349    39.4063   -58.5512 CH3           1 RES     
    2501 CH3          4.4514    39.8644   -58.0694 CH3           1 RES     
    2502 NL           5.6245    39.5044   -57.5746 NL            1 RES     
    2503 CH2          5.9298    40.5731   -56.7359 CH2           1 RES     
    2504 CH2          7.2939    40.1237   -56.1801 CH2           1 RES     
    2505 OA           7.8130    41.8750   -52.7280 OA            1 RES     
    2506 P            7.2782    40.7882   -53.7735 P             1 RES     
    2507 OM           7.8796    39.3762   -53.3212 OM            1 RES     
    2508 OM           5.6804    40.8687   -53.7477 OM            1 RES     
    2509 OA           7.8084    41.1507   -55.2389 OA            1 RES     
    2510 CH2          7.3027    41.5076   -51.3827 CH2           1 RES     
    2511 CH1          7.7983    42.5338   -50.3470 CH1           1 RES     
    2512 OE           6.6436    43.1804   -49.7070 OE            1 RES     
    2513 C            7.0375    42.7081   -48.3389 C             1 RES     
    2514 O            8.0317    42.0255   -48.0969 O             1 RES     
    2515 CH2          5.9269    43.0594   -47.5529 CH2           1 RES     
    2516 CH2          6.2865    42.4471   -46.1864 CH2           1 RES     
    2517 CH2          5.0876    42.5851   -45.2298 CH2           1 RES     
    2518 CH2          5.4471    41.9728   -43.8632 CH2           1 RES     
    2519 CH2          4.2482    42.1108   -42.9066 CH2           1 RES     
    2520 CH2          4.6077    41.4985   -41.5401 CH2           1 RES     
    2521 CH2          3.4088    41.6365   -40.5835 CH2           1 RES     
    2522 CH2          3.7684    41.0242   -39.2169 CH2           1 RES     
    2523 CH2          2.5694    41.1622   -38.2603 CH2           1 RES     
    2524 CH2          2.9290    40.5499   -36.8938 CH2           1 RES     
    2525 CH2          1.7301    40.6879   -35.9372 CH2           1 RES     
    2526 CH2          2.0896    40.0756   -34.5707 CH2           1 RES     
    2527 CH2          0.8907    40.2137   -33.6140 CH2           1 RES     
    2528 CH2          1.2502    39.6013   -32.2475 CH2           1 RES     
    2529 CH2          0.0513    39.7394   -31.2909 CH2           1 RES     
    2530 CH2          0.4108    39.1270   -29.9244 CH2           1 RES     
    2531 CH3         -0.7336    39.2588   -29.0112 CH3           1 RES     
    2532 CH2          8.6436    41.8166   -49.2780 CH2           1 RES     
    2533 OE           9.8556    41.2762   -49.8972 OE            1 RES     
    2534 C           10.4854    40.6945   -48.6664 C             1 RES     
    2535 O           11.5639    40.1034   -48.6486 O             1 RES     
    2536 CH2          9.4717    40.8259   -47.7022 CH2           1 RES     
    2537 CH2         10.0806    40.1023   -46.4867 CH2           1 RES     
    2538 CH2          9.0246    39.9935   -45.3711 CH2           1 RES     
    2539 CH2          9.6335    39.2699   -44.1557 CH2           1 RES     
    2540 CH2          8.5775    39.1610   -43.0401 CH2           1 RES     
    2541 CH2          9.1864    38.4374   -41.8247 CH2           1 RES     
    2542 CH2          8.1304    38.3286   -40.7091 CH2           1 RES     
    2543 CH2          8.7393    37.6050   -39.4937 CH2           1 RES     
    2544 CH2          7.6832    37.4961   -38.3781 CH2           1 RES     
    2545 CH2          8.2922    36.7725   -37.1627 CH2           1 RES     
    2546 CH2          7.2361    36.6637   -36.0471 CH2           1 RES     
    2547 CH2          7.8450    35.9401   -34.8317 CH2           1 RES     
    2548 CH2          6.7890    35.8313   -33.7161 CH2           1 RES     
    2549 CH2          7.3979    35.1077   -32.5006 CH2           1 RES     
    2550 CH2          6.3419    34.9988   -31.3850 CH2           1 RES     
    2551 CH2          6.9508    34.2752   -30.1696 CH2           1 RES     
    2552 CH3          5.9428    34.1713   -29.1047 CH3           1 RES     
    2553 CH3          5.4357    10.9545   -56.7654 CH3           1 RES     
    2554 CH3          6.7111    11.8014   -58.5512 CH3           1 RES     
    2555 CH3          4.7464    12.6324   -58.0694 CH3           1 RES     
    2556 NL           5.8340    12.0642   -57.5746 NL            1 RES     
    2557 CH2          6.3294    13.0591   -56.7359 CH2           1 RES     
    2558 CH2          7.5884    12.3680   -56.1801 CH2           1 RES     
    2559 OA           8.4188    13.9950   -52.7280 OA            1 RES     
    2560 P            7.6944    13.0242   -53.7735 P             1 RES     
    2561 OM           8.0277    11.5261   -53.3212 OM            1 RES     
    2562 OM           6.1382    13.3953   -53.7477 OM            1 RES     
    2563 OA           8.2819    13.2837   -55.2389 OA            1 RES     
    2564 CH2          7.8500    13.7270   -51.3827 CH2           1 RES     
    2565 CH1          8.5248    14.6454   -50.3470 CH1           1 RES     
    2566 OE           7.5076    15.4920   -49.7070 OE            1 RES     
    2567 C            7.8086    14.9557   -48.3389 C             1 RES     
    2568 O            8.6614    14.1030   -48.0969 O             1 RES     
    2569 CH2          6.7809    15.5041   -47.5529 CH2           1 RES     
    2570 CH2          7.0225    14.8364   -46.1864 CH2           1 RES     
    2571 CH2          5.8690    15.1911   -45.2298 CH2           1 RES     
    2572 CH2          6.1106    14.5234   -43.8632 CH2           1 RES     
    2573 CH2          4.9571    14.8782   -42.9066 CH2           1 RES     
    2574 CH2          5.1987    14.2105   -41.5401 CH2           1 RES     
    2575 CH2          4.0452    14.5653   -40.5835 CH2           1 RES     
    2576 CH2          4.2868    13.8976   -39.2169 CH2           1 RES     
    2577 CH2          3.1333    14.2523   -38.2603 CH2           1 RES     
    2578 CH2          3.3749    13.5846   -36.8938 CH2           1 RES     
    2579 CH2          2.2214    13.9394   -35.9372 CH2           1 RES     
    2580 CH2          2.4630    13.2717   -34.5707 CH2           1 RES     
    2581 CH2          1.3095    13.6265   -33.6140 CH2           1 RES     
    2582 CH2          1.5511    12.9588   -32.2475 CH2           1 RES     
    2583 CH2          0.3975    13.3135   -31.2909 CH2           1 RES     
    2584 CH2          0.6392    12.6458   -29.9244 CH2           1 RES     
    2585 CH3         -0.4619    12.9845   -29.0112 CH3           1 RES     
    2586 CH2          9.2247    13.7858   -49.2780 CH2           1 RES     
    2587 OE          10.3176    13.0331   -49.8972 OE            1 RES     
    2588 C           10.8305    12.3460   -48.6664 C             1 RES     
    2589 O           11.7829    11.5678   -48.6486 O             1 RES     
    2590 CH2          9.8579    12.6604   -47.7022 CH2           1 RES     
    2591 CH2         10.3243    11.8378   -46.4867 CH2           1 RES     
    2592 CH2          9.2662    11.9237   -45.3711 CH2           1 RES     
    2593 CH2          9.7326    11.1010   -44.1557 CH2           1 RES     
    2594 CH2          8.6745    11.1870   -43.0401 CH2           1 RES     
    2595 CH2          9.1409    10.3643   -41.8247 CH2           1 RES     
    2596 CH2          8.0828    10.4503   -40.7091 CH2           1 RES     
    2597 CH2          8.5492     9.6276   -39.4937 CH2           1 RES     
    2598 CH2          7.4911     9.7135   -38.3781 CH2           1 RES     
    2599 CH2          7.9575     8.8909   -37.1627 CH2           1 RES     
    2600 CH2          6.8994     8.9768   -36.0471 CH2           1 RES     
    2601 CH2          7.3658     8.1541   -34.8317 CH2           1 RES     
    2602 CH2          6.3077     8.2401   -33.7161 CH2           1 RES     
    2603 CH2          6.7741     7.4174   -32.5006 CH2           1 RES     
    2604 CH2          5.7160     7.5034   -31.3850 CH2           1 RES     
    2605 CH2          6.1824     6.6807   -30.1696 CH2           1 RES     
    2606 CH3          5.1724     6.7627   -29.1047 CH3           1 RES     
    2607 CH3         27.3446     5.4772   -56.7654 CH3           1 RES     
    2608 CH3         28.6042     6.3475   -58.5512 CH3           1 RES     
    2609 CH3         26.6245     7.1422   -58.0694 CH3           1 RES     
    2610 NL          27.7224     6.5941   -57.5746 NL            1 RES     
    2611 CH2         28.1994     7.5979   -56.7359 CH2           1 RES     
    2612 CH2         29.4709     6.9302   -56.1801 CH2           1 RES     
    2613 OA          30.2712     8.5722   -52.7280 OA            1 RES     
    2614 P           29.5648     7.5882   -53.7735 P             1 RES     
    2615 OM          29.9256     6.0965   -53.3212 OM            1 RES     
    2616 OM          28.0021     7.9306   -53.7477 OM            1 RES     
    2617 OA          30.1474     7.8585   -55.2389 OA            1 RES     
    2618 CH2         29.7074     8.2937   -51.3827 CH2           1 RES     
    2619 CH1         30.3652     9.2244   -50.3470 CH1           1 RES     
    2620 OE          29.3326    10.0522   -49.7070 OE            1 RES     
    2621 C           29.6434     9.5215   -48.3389 C             1 RES     
    2622 O           30.5117     8.6847   -48.0969 O             1 RES     
    2623 CH2         28.6058    10.0509   -47.5529 CH2           1 RES     
    2624 CH2         28.8597     9.3877   -46.1864 CH2           1 RES     
    2625 CH2         27.6998     9.7212   -45.2298 CH2           1 RES     
    2626 CH2         27.9537     9.0580   -43.8632 CH2           1 RES     
    2627 CH2         26.7938     9.3915   -42.9066 CH2           1 RES     
    2628 CH2         27.0477     8.7284   -41.5401 CH2           1 RES     
    2629 CH2         25.8878     9.0618   -40.5835 CH2           1 RES     
    2630 CH2         26.1417     8.3987   -39.2169 CH2           1 RES     
    2631 CH2         24.9818     8.7322   -38.2603 CH2           1 RES     
    2632 CH2         25.2357     8.0690   -36.8938 CH2           1 RES     
    2633 CH2         24.0758     8.4025   -35.9372 CH2           1 RES     
    2634 CH2         24.3297     7.7393   -34.5707 CH2           1 RES     
    2635 CH2         23.1698     8.0728   -33.6140 CH2           1 RES     
    2636 CH2         23.4237     7.4097   -32.2475 CH2           1 RES     
    2637 CH2         22.2639     7.7431   -31.2909 CH2           1 RES     
    2638 CH2         22.5177     7.0800   -29.9244 CH2           1 RES     
    2639 CH3         21.4106     7.3983   -29.0112 CH3           1 RES     
    2640 CH2         31.0809     8.3778   -49.2780 CH2           1 RES     
    2641 OE          32.1874     7.6454   -49.8972 OE            1 RES     
    2642 C           32.7129     6.9679   -48.6664 C             1 RES     
    2643 O           33.6794     6.2074   -48.6486 O             1 RES     
    2644 CH2         31.7346     7.2644   -47.7022 CH2           1 RES     
    2645 CH2         32.2161     6.4504   -46.4867 CH2           1 RES     
    2646 CH2         31.1566     6.5169   -45.3711 CH2           1 RES     
    2647 CH2         31.6381     5.7029   -44.1557 CH2           1 RES     
    2648 CH2         30.5786     5.7694   -43.0401 CH2           1 RES     
    2649 CH2         31.0601     4.9554   -41.8247 CH2           1 RES     
    2650 CH2         30.0005     5.0219   -40.7091 CH2           1 RES     
    2651 CH2         30.4821     4.2079   -39.4937 CH2           1 RES     
    2652 CH2         29.4225     4.2744   -38.3781 CH2           1 RES     
    2653 CH2         29.9040     3.4604   -37.1627 CH2           1 RES     
    2654 CH2         28.8445     3.5269   -36.0471 CH2           1 RES     
    2655 CH2         29.3260     2.7129   -34.8317 CH2           1 RES     
    2656 CH2         28.2665     2.7794   -33.7161 CH2           1 RES     
    2657 CH2         28.7480     1.9654   -32.5006 CH2           1 RES     
    2658 CH2         27.6884     2.0319   -31.3850 CH2           1 RES     
    2659 CH2         28.1699     1.2180   -30.1696 CH2           1 RES     
    2660 CH3         27.1586     1.2814   -29.1047 CH3           1 RES     
    2661 CH3         16.3901    27.3861   -56.7654 CH3           1 RES     
    2662 CH3         17.5223    28.4168   -58.5512 CH3           1 RES     
    2663 CH3         15.4542    28.9401   -58.0694 CH3           1 RES     
    2664 NL          16.6155    28.5435   -57.5746 NL            1 RES     
    2665 CH2         16.9542    29.6020   -56.7359 CH2           1 RES     
    2666 CH2         18.3035    29.1100   -56.1801 CH2           1 RES     
    2667 OA          18.8773    30.8441   -52.7280 OA            1 RES     
    2668 P           18.3086    29.7746   -53.7735 P             1 RES     
    2669 OM          18.8654    28.3444   -53.3212 OM            1 RES     
    2670 OM          16.7142    29.9053   -53.7477 OM            1 RES     
    2671 OA          18.8500    30.1203   -55.2389 OA            1 RES     
    2672 CH2         18.3558    30.4929   -51.3827 CH2           1 RES     
    2673 CH1         18.8834    31.5030   -50.3470 CH1           1 RES     
    2674 OE          17.7496    32.1856   -49.7070 OE            1 RES     
    2675 C           18.1284    31.7011   -48.3389 C             1 RES     
    2676 O           19.1007    30.9877   -48.0969 O             1 RES     
    2677 CH2         17.0295    32.0872   -47.5529 CH2           1 RES     
    2678 CH2         17.3696    31.4639   -46.1864 CH2           1 RES     
    2679 CH2         16.1756    31.6395   -45.2298 CH2           1 RES     
    2680 CH2         16.5157    31.0162   -43.8632 CH2           1 RES     
    2681 CH2         15.3217    31.1918   -42.9066 CH2           1 RES     
    2682 CH2         15.6618    30.5685   -41.5401 CH2           1 RES     
    2683 CH2         14.4678    30.7442   -40.5835 CH2           1 RES     
    2684 CH2         14.8080    30.1208   -39.2169 CH2           1 RES     
    2685 CH2         13.6140    30.2965   -38.2603 CH2           1 RES     
    2686 CH2         13.9541    29.6732   -36.8938 CH2           1 RES     
    2687 CH2         12.7601    29.8488   -35.9372 CH2           1 RES     
    2688 CH2         13.1002    29.2255   -34.5707 CH2           1 RES     
    2689 CH2         11.9062    29.4011   -33.6140 CH2           1 RES     
    2690 CH2         12.2464    28.7778   -32.2475 CH2           1 RES     
    2691 CH2         11.0524    28.9535   -31.2909 CH2           1 RES     
    2692 CH2         11.3925    28.3301   -29.9244 CH2           1 RES     
    2693 CH3         10.2528    28.4978   -29.0112 CH3           1 RES     
    2694 CH2         19.7057    30.7596   -49.2780 CH2           1 RES     
    2695 OE          20.9002    30.1814   -49.8972 OE            1 RES     
    2696 C           21.5114    29.5802   -48.6664 C             1 RES     
    2697 O           22.5708    28.9555   -48.6486 O             1 RES     
    2698 CH2         20.5023    29.7434   -47.7022 CH2           1 RES     
    2699 CH2         21.0882    29.0010   -46.4867 CH2           1 RES     
    2700 CH2         20.0292    28.9254   -45.3711 CH2           1 RES     
    2701 CH2         20.6151    28.1830   -44.1557 CH2           1 RES     
    2702 CH2         19.5562    28.1074   -43.0401 CH2           1 RES     
    2703 CH2         20.1420    27.3650   -41.8247 CH2           1 RES     
    2704 CH2         19.0831    27.2894   -40.7091 CH2           1 RES     
    2705 CH2         19.6690    26.5471   -39.4937 CH2           1 RES     
    2706 CH2         18.6100    26.4715   -38.3781 CH2           1 RES     
    2707 CH2         19.1959    25.7291   -37.1627 CH2           1 RES     
    2708 CH2         18.1370    25.6535   -36.0471 CH2           1 RES     
    2709 CH2         18.7229    24.9111   -34.8317 CH2           1 RES     
    2710 CH2         17.6639    24.8355   -33.7161 CH2           1 RES     
    2711 CH2         18.2498    24.0931   -32.5006 CH2           1 RES     
    2712 CH2         17.1909    24.0175   -31.3850 CH2           1 RES     
    2713 CH2         17.7767    23.2752   -30.1696 CH2           1 RES     
    2714 CH3         16.7659    23.2030   -29.1047 CH3           1 RES     
    2715 CH3         21.8674    21.9089   -56.7654 CH3           1 RES     
    2716 CH3         22.7815    23.1371   -58.5512 CH3           1 RES     
    2717 CH3         20.6515    23.2552   -58.0694 CH3           1 RES     
    2718 NL          21.8672    23.0880   -57.5746 NL            1 RES     
    2719 CH2         21.9973    24.1917   -56.7359 CH2           1 RES     
    2720 CH2         23.4158    23.9668   -56.1801 CH2           1 RES     
    2721 OA          23.6474    25.7786   -52.7280 OA            1 RES     
    2722 P           23.2937    24.6202   -53.7735 P             1 RES     
    2723 OM          24.1137    23.3228   -53.3212 OM            1 RES     
    2724 OM          21.7037    24.4436   -53.7477 OM            1 RES     
    2725 OA          23.7590    25.0630   -55.2389 OA            1 RES     
    2726 CH2         23.2027    25.3342   -51.3827 CH2           1 RES     
    2727 CH1         23.5274    26.4266   -50.3470 CH1           1 RES     
    2728 OE          22.2840    26.8797   -49.7070 OE            1 RES     
    2729 C           22.7485    26.4767   -48.3389 C             1 RES     
    2730 O           23.8392    25.9623   -48.0969 O             1 RES     
    2731 CH2         21.5960    26.6455   -47.5529 CH2           1 RES     
    2732 CH2         22.0490    26.0987   -46.1864 CH2           1 RES     
    2733 CH2         20.8434    26.0428   -45.2298 CH2           1 RES     
    2734 CH2         21.2965    25.4960   -43.8632 CH2           1 RES     
    2735 CH2         20.0909    25.4401   -42.9066 CH2           1 RES     
    2736 CH2         20.5440    24.8933   -41.5401 CH2           1 RES     
    2737 CH2         19.3384    24.8374   -40.5835 CH2           1 RES     
    2738 CH2         19.7915    24.2906   -39.2169 CH2           1 RES     
    2739 CH2         18.5859    24.2347   -38.2603 CH2           1 RES     
    2740 CH2         19.0390    23.6879   -36.8938 CH2           1 RES     
    2741 CH2         17.8334    23.6320   -35.9372 CH2           1 RES     
    2742 CH2         18.2865    23.0852   -34.5707 CH2           1 RES     
    2743 CH2         17.0809    23.0293   -33.6140 CH2           1 RES     
    2744 CH2         17.5339    22.4825   -32.2475 CH2           1 RES     
    2745 CH2         16.3284    22.4266   -31.2909 CH2           1 RES     
    2746 CH2         16.7814    21.8798   -29.9244 CH2           1 RES     
    2747 CH3         15.6307    21.8265   -29.0112 CH3           1 RES     
    2748 CH2         24.4767    25.8541   -49.2780 CH2           1 RES     
    2749 OE          25.7597    25.5150   -49.8972 OE            1 RES     
    2750 C           26.4745    25.0417   -48.6664 C             1 RES     
    2751 O           27.6339    24.6311   -48.6486 O             1 RES     
    2752 CH2         25.4529    25.0090   -47.7022 CH2           1 RES     
    2753 CH2         26.1699    24.3923   -46.4867 CH2           1 RES     
    2754 CH2         25.1450    24.1156   -45.3711 CH2           1 RES     
    2755 CH2         25.8620    23.4990   -44.1557 CH2           1 RES     
    2756 CH2         24.8371    23.2223   -43.0401 CH2           1 RES     
    2757 CH2         25.5541    22.6056   -41.8247 CH2           1 RES     
    2758 CH2         24.5291    22.3289   -40.7091 CH2           1 RES     
    2759 CH2         25.2461    21.7123   -39.4937 CH2           1 RES     
    2760 CH2         24.2212    21.4356   -38.3781 CH2           1 RES     
    2761 CH2         24.9382    20.8190   -37.1627 CH2           1 RES     
    2762 CH2         23.9133    20.5423   -36.0471 CH2           1 RES     
    2763 CH2         24.6303    19.9256   -34.8317 CH2           1 RES     
    2764 CH2         23.6054    19.6489   -33.7161 CH2           1 RES     
    2765 CH2         24.3224    19.0323   -32.5006 CH2           1 RES     
    2766 CH2         23.2974    18.7556   -31.3850 CH2           1 RES     
    2767 CH2         24.0145    18.1389   -30.1696 CH2           1 RES     
    2768 CH3         23.0361    17.8748   -29.1047 CH3           1 RES     
    2769 CH3         32.8218    16.4317   -56.7654 CH3           1 RES     
    2770 CH3         33.8471    17.5687   -58.5512 CH3           1 RES     
    2771 CH3         31.7376    17.8861   -58.0694 CH3           1 RES     
    2772 NL          32.9323    17.6056   -57.5746 NL            1 RES     
    2773 CH2         33.1653    18.6922   -56.7359 CH2           1 RES     
    2774 CH2         34.5564    18.3353   -56.1801 CH2           1 RES     
    2775 OA          34.9570    20.1174   -52.7280 OA            1 RES     
    2776 P           34.4962    18.9972   -53.7735 P             1 RES     
    2777 OM          35.1908    17.6287   -53.3212 OM            1 RES     
    2778 OM          32.8966    18.9705   -53.7477 OM            1 RES     
    2779 OA          35.0009    19.3944   -55.2389 OA            1 RES     
    2780 CH2         34.4725    19.7166   -51.3827 CH2           1 RES     
    2781 CH1         34.8982    20.7738   -50.3470 CH1           1 RES     
    2782 OE          33.7028    21.3415   -49.7070 OE            1 RES     
    2783 C           34.1274    20.8967   -48.3389 C             1 RES     
    2784 O           35.1652    20.2823   -48.0969 O             1 RES     
    2785 CH2         32.9958    21.1728   -47.5529 CH2           1 RES     
    2786 CH2         33.3956    20.5860   -46.1864 CH2           1 RES     
    2787 CH2         32.1901    20.6434   -45.2298 CH2           1 RES     
    2788 CH2         32.5899    20.0565   -43.8632 CH2           1 RES     
    2789 CH2         31.3844    20.1139   -42.9066 CH2           1 RES     
    2790 CH2         31.7842    19.5270   -41.5401 CH2           1 RES     
    2791 CH2         30.5787    19.5844   -40.5835 CH2           1 RES     
    2792 CH2         30.9784    18.9976   -39.2169 CH2           1 RES     
    2793 CH2         29.7730    19.0550   -38.2603 CH2           1 RES     
    2794 CH2         30.1727    18.4681   -36.8938 CH2           1 RES     
    2795 CH2         28.9672    18.5255   -35.9372 CH2           1 RES     
    2796 CH2         29.3670    17.9387   -34.5707 CH2           1 RES     
    2797 CH2         28.1615    17.9961   -33.6140 CH2           1 RES     
    2798 CH2         28.5613    17.4092   -32.2475 CH2           1 RES     
    2799 CH2         27.3558    17.4666   -31.2909 CH2           1 RES     
    2800 CH2         27.7556    16.8797   -29.9244 CH2           1 RES     
    2801 CH3         26.6049    16.9345   -29.0112 CH3           1 RES     
    2802 CH2         35.7897    20.1148   -49.2780 CH2           1 RES     
    2803 OE          37.0352    19.6569   -49.8972 OE            1 RES     
    2804 C           37.7025    19.1186   -48.6664 C             1 RES     
    2805 O           38.8182    18.6011   -48.6486 O             1 RES     
    2806 CH2         36.6823    19.1818   -47.7022 CH2           1 RES     
    2807 CH2         37.3383    18.5006   -46.4867 CH2           1 RES     
    2808 CH2         36.2919    18.3213   -45.3711 CH2           1 RES     
    2809 CH2         36.9480    17.6401   -44.1557 CH2           1 RES     
    2810 CH2         35.9016    17.4607   -43.0401 CH2           1 RES     
    2811 CH2         36.5576    16.7796   -41.8247 CH2           1 RES     
    2812 CH2         35.5112    16.6002   -40.7091 CH2           1 RES     
    2813 CH2         36.1673    15.9190   -39.4937 CH2           1 RES     
    2814 CH2         35.1209    15.7397   -38.3781 CH2           1 RES     
    2815 CH2         35.7769    15.0585   -37.1627 CH2           1 RES     
    2816 CH2         34.7306    14.8792   -36.0471 CH2           1 RES     
    2817 CH2         35.3866    14.1980   -34.8317 CH2           1 RES     
    2818 CH2         34.3402    14.0187   -33.7161 CH2           1 RES     
    2819 CH2         34.9962    13.3375   -32.5006 CH2           1 RES     
    2820 CH2         33.9499    13.1581   -31.3850 CH2           1 RES     
    2821 CH2         34.6059    12.4770   -30.1696 CH2           1 RES     
    2822 CH3         33.6071    12.3058   -29.1047 CH3           1 RES     
    2823 CH3          5.4357    16.4317   -56.7654 CH3           1 RES     
    2824 CH3          6.5686    17.4615   -58.5512 CH3           1 RES     
    2825 CH3          4.5009    17.9863   -58.0694 CH3           1 RES     
    2826 NL           5.6619    17.5888   -57.5746 NL            1 RES     
    2827 CH2          6.0014    18.6471   -56.7359 CH2           1 RES     
    2828 CH2          7.3503    18.1541   -56.1801 CH2           1 RES     
    2829 OA           7.9254    19.8878   -52.7280 OA            1 RES     
    2830 P            7.3560    18.8188   -53.7735 P             1 RES     
    2831 OM           7.9116    17.3882   -53.3212 OM            1 RES     
    2832 OM           5.7616    18.9506   -53.7477 OM            1 RES     
    2833 OA           7.8975    19.1640   -55.2389 OA            1 RES     
    2834 CH2          7.4036    19.5370   -51.3827 CH2           1 RES     
    2835 CH1          7.9320    20.5467   -50.3470 CH1           1 RES     
    2836 OE           6.7987    21.2301   -49.7070 OE            1 RES     
    2837 C            7.1772    20.7454   -48.3389 C             1 RES     
    2838 O            8.1489    20.0312   -48.0969 O             1 RES     
    2839 CH2          6.0785    21.1323   -47.5529 CH2           1 RES     
    2840 CH2          6.4181    20.5087   -46.1864 CH2           1 RES     
    2841 CH2          5.2243    20.6852   -45.2298 CH2           1 RES     
    2842 CH2          5.5639    20.0616   -43.8632 CH2           1 RES     
    2843 CH2          4.3701    20.2382   -42.9066 CH2           1 RES     
    2844 CH2          4.7097    19.6146   -41.5401 CH2           1 RES     
    2845 CH2          3.5159    19.7911   -40.5835 CH2           1 RES     
    2846 CH2          3.8555    19.1676   -39.2169 CH2           1 RES     
    2847 CH2          2.6617    19.3441   -38.2603 CH2           1 RES     
    2848 CH2          3.0013    18.7205   -36.8938 CH2           1 RES     
    2849 CH2          1.8075    18.8970   -35.9372 CH2           1 RES     
    2850 CH2          2.1471    18.2735   -34.5707 CH2           1 RES     
    2851 CH2          0.9533    18.4500   -33.6140 CH2           1 RES     
    2852 CH2          1.2929    17.8264   -32.2475 CH2           1 RES     
    2853 CH2          0.0991    18.0029   -31.2909 CH2           1 RES     
    2854 CH2          0.4387    17.3794   -29.9244 CH2           1 RES     
    2855 CH3         -0.7008    17.5479   -29.0112 CH3           1 RES     
    2856 CH2          8.7538    19.8027   -49.2780 CH2           1 RES     
    2857 OE           9.9478    19.2236   -49.8972 OE            1 RES     
    2858 C           10.5585    18.6219   -48.6664 C             1 RES     
    2859 O           11.6175    17.9965   -48.6486 O             1 RES     
    2860 CH2          9.5496    18.7859   -47.7022 CH2           1 RES     
    2861 CH2         10.1349    18.0431   -46.4867 CH2           1 RES     
    2862 CH2          9.0759    17.9682   -45.3711 CH2           1 RES     
    2863 CH2          9.6612    17.2254   -44.1557 CH2           1 RES     
    2864 CH2          8.6023    17.1506   -43.0401 CH2           1 RES     
    2865 CH2          9.1876    16.4078   -41.8247 CH2           1 RES     
    2866 CH2          8.1286    16.3330   -40.7091 CH2           1 RES     
    2867 CH2          8.7139    15.5902   -39.4937 CH2           1 RES     
    2868 CH2          7.6549    15.5154   -38.3781 CH2           1 RES     
    2869 CH2          8.2402    14.7726   -37.1627 CH2           1 RES     
    2870 CH2          7.1813    14.6977   -36.0471 CH2           1 RES     
    2871 CH2          7.7666    13.9549   -34.8317 CH2           1 RES     
    2872 CH2          6.7076    13.8801   -33.7161 CH2           1 RES     
    2873 CH2          7.2929    13.1373   -32.5006 CH2           1 RES     
    2874 CH2          6.2339    13.0625   -31.3850 CH2           1 RES     
    2875 CH2          6.8192    12.3197   -30.1696 CH2           1 RES     
    2876 CH3          5.8084    12.2483   -29.1047 CH3           1 RES     
    2877 CH3         27.3446    21.9089   -56.7654 CH3           1 RES     
    2878 CH3         28.2104    23.1716   -58.5512 CH3           1 RES     
    2879 CH3         26.0774    23.2070   -58.0694 CH3           1 RES     
    2880 NL          27.2987    23.0871   -57.5746 NL            1 RES     
    2881 CH2         27.3858    24.1950   -56.7359 CH2           1 RES     
    2882 CH2         28.8120    24.0253   -56.1801 CH2           1 RES     
    2883 OA          28.9731    25.8448   -52.7280 OA            1 RES     
    2884 P           28.6647    24.6735   -53.7735 P             1 RES     
    2885 OM          29.5343    23.4090   -53.3212 OM            1 RES     
    2886 OM          27.0827    24.4353   -53.7477 OM            1 RES     
    2887 OA          29.1124    25.1340   -55.2389 OA            1 RES     
    2888 CH2         28.5459    25.3834   -51.3827 CH2           1 RES     
    2889 CH1         28.8280    26.4876   -50.3470 CH1           1 RES     
    2890 OE          27.5680    26.8922   -49.7070 OE            1 RES     
    2891 C           28.0478    26.5074   -48.3389 C             1 RES     
    2892 O           29.1577    26.0358   -48.0969 O             1 RES     
    2893 CH2         26.8895    26.6314   -47.5529 CH2           1 RES     
    2894 CH2         27.3635    26.1026   -46.1864 CH2           1 RES     
    2895 CH2         26.1610    25.9999   -45.2298 CH2           1 RES     
    2896 CH2         26.6349    25.4711   -43.8632 CH2           1 RES     
    2897 CH2         25.4325    25.3685   -42.9066 CH2           1 RES     
    2898 CH2         25.9064    24.8397   -41.5401 CH2           1 RES     
    2899 CH2         24.7039    24.7370   -40.5835 CH2           1 RES     
    2900 CH2         25.1778    24.2082   -39.2169 CH2           1 RES     
    2901 CH2         23.9754    24.1056   -38.2603 CH2           1 RES     
    2902 CH2         24.4493    23.5768   -36.8938 CH2           1 RES     
    2903 CH2         23.2468    23.4741   -35.9372 CH2           1 RES     
    2904 CH2         23.7207    22.9454   -34.5707 CH2           1 RES     
    2905 CH2         22.5183    22.8427   -33.6140 CH2           1 RES     
    2906 CH2         22.9922    22.3139   -32.2475 CH2           1 RES     
    2907 CH2         21.7897    22.2113   -31.2909 CH2           1 RES     
    2908 CH2         22.2636    21.6825   -29.9244 CH2           1 RES     
    2909 CH3         21.1158    21.5845   -29.0112 CH3           1 RES     
    2910 CH2         29.7988    25.9524   -49.2780 CH2           1 RES     
    2911 OE          31.0940    25.6634   -49.8972 OE            1 RES     
    2912 C           31.8267    25.2182   -48.6664 C             1 RES     
    2913 O           33.0011    24.8529   -48.6486 O             1 RES     
    2914 CH2         30.8071    25.1458   -47.7022 CH2           1 RES     
    2915 CH2         31.5475    24.5574   -46.4867 CH2           1 RES     
    2916 CH2         30.5341    24.2412   -45.3711 CH2           1 RES     
    2917 CH2         31.2745    23.6528   -44.1557 CH2           1 RES     
    2918 CH2         30.2611    23.3365   -43.0401 CH2           1 RES     
    2919 CH2         31.0015    22.7482   -41.8247 CH2           1 RES     
    2920 CH2         29.9881    22.4319   -40.7091 CH2           1 RES     
    2921 CH2         30.7285    21.8436   -39.4937 CH2           1 RES     
    2922 CH2         29.7150    21.5273   -38.3781 CH2           1 RES     
    2923 CH2         30.4554    20.9390   -37.1627 CH2           1 RES     
    2924 CH2         29.4420    20.6227   -36.0471 CH2           1 RES     
    2925 CH2         30.1824    20.0343   -34.8317 CH2           1 RES     
    2926 CH2         29.1690    19.7181   -33.7161 CH2           1 RES     
    2927 CH2         29.9094    19.1297   -32.5006 CH2           1 RES     
    2928 CH2         28.8960    18.8135   -31.3850 CH2           1 RES     
    2929 CH2         29.6364    18.2251   -30.1696 CH2           1 RES     
    2930 CH3         28.6690    17.9232   -29.1047 CH3           1 RES     
    2931 CH3          5.4357    27.3861   -56.7654 CH3           1 RES     
    2932 CH3          6.7878    28.1044   -58.5512 CH3           1 RES     
    2933 CH3          4.9137    29.1235   -58.0694 CH3           1 RES     
    2934 NL           5.9406    28.4516   -57.5746 NL            1 RES     
    2935 CH2          6.5309    29.3933   -56.7359 CH2           1 RES     
    2936 CH2          7.7163    28.5825   -56.1801 CH2           1 RES     
    2937 OA           8.7017    30.1205   -52.7280 OA            1 RES     
    2938 P            7.8859    29.2252   -53.7735 P             1 RES     
    2939 OM           8.0711    27.7017   -53.3212 OM            1 RES     
    2940 OM           6.3734    29.7466   -53.7477 OM            1 RES     
    2941 OA           8.4959    29.4260   -55.2389 OA            1 RES     
    2942 CH2          8.1094    29.9094   -51.3827 CH2           1 RES     
    2943 CH1          8.8707    30.7574   -50.3470 CH1           1 RES     
    2944 OE           7.9413    31.6995   -49.7070 OE            1 RES     
    2945 C            8.1883    31.1363   -48.3389 C             1 RES     
    2946 O            8.9537    30.2043   -48.0969 O             1 RES     
    2947 CH2          7.2192    31.7825   -47.5529 CH2           1 RES     
    2948 CH2          7.3944    31.0943   -46.1864 CH2           1 RES     
    2949 CH2          6.2810    31.5602   -45.2298 CH2           1 RES     
    2950 CH2          6.4562    30.8720   -43.8632 CH2           1 RES     
    2951 CH2          5.3429    31.3379   -42.9066 CH2           1 RES     
    2952 CH2          5.5181    30.6497   -41.5401 CH2           1 RES     
    2953 CH2          4.4048    31.1156   -40.5835 CH2           1 RES     
    2954 CH2          4.5800    30.4274   -39.2169 CH2           1 RES     
    2955 CH2          3.4667    30.8933   -38.2603 CH2           1 RES     
    2956 CH2          3.6418    30.2051   -36.8938 CH2           1 RES     
    2957 CH2          2.5285    30.6710   -35.9372 CH2           1 RES     
    2958 CH2          2.7037    29.9828   -34.5707 CH2           1 RES     
    2959 CH2          1.5904    30.4487   -33.6140 CH2           1 RES     
    2960 CH2          1.7656    29.7606   -32.2475 CH2           1 RES     
    2961 CH2          0.6523    30.2264   -31.2909 CH2           1 RES     
    2962 CH2          0.8274    29.5383   -29.9244 CH2           1 RES     
    2963 CH3         -0.2353    29.9829   -29.0112 CH3           1 RES     
    2964 CH2          9.4833    29.8335   -49.2780 CH2           1 RES     
    2965 OE          10.4974    28.9776   -49.8972 OE            1 RES     
    2966 C           10.9407    28.2437   -48.6664 C             1 RES     
    2967 O           11.8124    27.3762   -48.6486 O             1 RES     
    2968 CH2         10.0035    28.6517   -47.7022 CH2           1 RES     
    2969 CH2         10.3873    27.7874   -46.4867 CH2           1 RES     
    2970 CH2          9.3426    27.9763   -45.3711 CH2           1 RES     
    2971 CH2          9.7264    27.1120   -44.1557 CH2           1 RES     
    2972 CH2          8.6817    27.3010   -43.0401 CH2           1 RES     
    2973 CH2          9.0655    26.4366   -41.8247 CH2           1 RES     
    2974 CH2          8.0208    26.6256   -40.7091 CH2           1 RES     
    2975 CH2          8.4046    25.7613   -39.4937 CH2           1 RES     
    2976 CH2          7.3600    25.9503   -38.3781 CH2           1 RES     
    2977 CH2          7.7438    25.0859   -37.1627 CH2           1 RES     
    2978 CH2          6.6991    25.2749   -36.0471 CH2           1 RES     
    2979 CH2          7.0829    24.4106   -34.8317 CH2           1 RES     
    2980 CH2          6.0382    24.5995   -33.7161 CH2           1 RES     
    2981 CH2          6.4220    23.7352   -32.5006 CH2           1 RES     
    2982 CH2          5.3773    23.9242   -31.3850 CH2           1 RES     
    2983 CH2          5.7611    23.0599   -30.1696 CH2           1 RES     
    2984 CH3          4.7639    23.2402   -29.1047 CH3           1 RES     
    2985 CH3         38.2990    38.3406   -56.7654 CH3           1 RES     
    2986 CH3         39.4354    39.3666   -58.5512 CH3           1 RES     
    2987 CH3         37.3695    39.8984   -58.0694 CH3           1 RES     
    2988 NL          38.5291    39.4970   -57.5746 NL            1 RES     
    2989 CH2         38.8722    40.5541   -56.7359 CH2           1 RES     
    2990 CH2         40.2194    40.0565   -56.1801 CH2           1 RES     
    2991 OA          40.8004    41.7883   -52.7280 OA            1 RES     
    2992 P           40.2273    40.7212   -53.7735 P             1 RES     
    2993 OM          40.7782    39.2887   -53.3212 OM            1 RES     
    2994 OM          38.6334    40.8584   -53.7477 OM            1 RES     
    2995 OA          40.7701    41.0646   -55.2389 OA            1 RES     
    2996 CH2         40.2774    41.4392   -51.3827 CH2           1 RES     
    2997 CH1         40.8092    42.4472   -50.3470 CH1           1 RES     
    2998 OE          39.6782    43.1344   -49.7070 OE            1 RES     
    2999 C           40.0550    42.6484   -48.3389 C             1 RES     
    3000 O           41.0244    41.9310   -48.0969 O             1 RES     
    3001 CH2         38.9576    43.0390   -47.5529 CH2           1 RES     
    3002 CH2         39.2952    42.4143   -46.1864 CH2           1 RES     
    3003 CH2         38.1019    42.5948   -45.2298 CH2           1 RES     
    3004 CH2         38.4395    41.9701   -43.8632 CH2           1 RES     
    3005 CH2         37.2462    42.1506   -42.9066 CH2           1 RES     
    3006 CH2         37.5838    41.5259   -41.5401 CH2           1 RES     
    3007 CH2         36.3905    41.7065   -40.5835 CH2           1 RES     
    3008 CH2         36.7281    41.0818   -39.2169 CH2           1 RES     
    3009 CH2         35.5349    41.2623   -38.2603 CH2           1 RES     
    3010 CH2         35.8724    40.6376   -36.8938 CH2           1 RES     
    3011 CH2         34.6792    40.8181   -35.9372 CH2           1 RES     
    3012 CH2         35.0167    40.1934   -34.5707 CH2           1 RES     
    3013 CH2         33.8235    40.3740   -33.6140 CH2           1 RES     
    3014 CH2         34.1610    39.7492   -32.2475 CH2           1 RES     
    3015 CH2         32.9678    39.9298   -31.2909 CH2           1 RES     
    3016 CH2         33.3053    39.3051   -29.9244 CH2           1 RES     
    3017 CH3         32.1663    39.4774   -29.0112 CH3           1 RES     
    3018 CH2         41.6284    41.7004   -49.2780 CH2           1 RES     
    3019 OE          42.8205    41.1173   -49.8972 OE            1 RES     
    3020 C           43.4292    40.5136   -48.6664 C             1 RES     
    3021 O           44.4861    39.8846   -48.6486 O             1 RES     
    3022 CH2         42.4208    40.6809   -47.7022 CH2           1 RES     
    3023 CH2         43.0037    39.9361   -46.4867 CH2           1 RES     
    3024 CH2         41.9444    39.8649   -45.3711 CH2           1 RES     
    3025 CH2         42.5272    39.1201   -44.1557 CH2           1 RES     
    3026 CH2         41.4680    39.0489   -43.0401 CH2           1 RES     
    3027 CH2         42.0508    38.3041   -41.8247 CH2           1 RES     
    3028 CH2         40.9916    38.2328   -40.7091 CH2           1 RES     
    3029 CH2         41.5744    37.4881   -39.4937 CH2           1 RES     
    3030 CH2         40.5152    37.4168   -38.3781 CH2           1 RES     
    3031 CH2         41.0980    36.6720   -37.1627 CH2           1 RES     
    3032 CH2         40.0388    36.6008   -36.0471 CH2           1 RES     
    3033 CH2         40.6216    35.8560   -34.8317 CH2           1 RES     
    3034 CH2         39.5623    35.7848   -33.7161 CH2           1 RES     
    3035 CH2         40.1452    35.0400   -32.5006 CH2           1 RES     
    3036 CH2         39.0859    34.9687   -31.3850 CH2           1 RES     
    3037 CH2         39.6687    34.2240   -30.1696 CH2           1 RES     
    3038 CH3         38.6577    34.1559   -29.1047 CH3           1 RES     
    3039 CH3         27.3446    10.9545   -56.7654 CH3           1 RES     
    3040 CH3         28.6323    11.7826   -58.5512 CH3           1 RES     
    3041 CH3         26.6800    12.6424   -58.0694 CH3           1 RES     
    3042 NL          27.7592    12.0582   -57.5746 NL            1 RES     
    3043 CH2         28.2691    13.0457   -56.7359 CH2           1 RES     
    3044 CH2         29.5179    12.3362   -56.1801 CH2           1 RES     
    3045 OA          30.3720    13.9508   -52.7280 OA            1 RES     
    3046 P           29.6334    12.9908   -53.7735 P             1 RES     
    3047 OM          29.9447    11.4880   -53.3212 OM            1 RES     
    3048 OM          28.0829    13.3847   -53.7477 OM            1 RES     
    3049 OA          30.2247    13.2417   -55.2389 OA            1 RES     
    3050 CH2         29.7993    13.6912   -51.3827 CH2           1 RES     
    3051 CH1         30.4875    14.5996   -50.3470 CH1           1 RES     
    3052 OE          29.4830    15.4611   -49.7070 OE            1 RES     
    3053 C           29.7760    14.9205   -48.3389 C             1 RES     
    3054 O           30.6162    14.0553   -48.0969 O             1 RES     
    3055 CH2         28.7565    15.4838   -47.5529 CH2           1 RES     
    3056 CH2         28.9883    14.8126   -46.1864 CH2           1 RES     
    3057 CH2         27.8401    15.1843   -45.2298 CH2           1 RES     
    3058 CH2         28.0718    14.5131   -43.8632 CH2           1 RES     
    3059 CH2         26.9237    14.8848   -42.9066 CH2           1 RES     
    3060 CH2         27.1554    14.2136   -41.5401 CH2           1 RES     
    3061 CH2         26.0073    14.5853   -40.5835 CH2           1 RES     
    3062 CH2         26.2390    13.9141   -39.2169 CH2           1 RES     
    3063 CH2         25.0909    14.2858   -38.2603 CH2           1 RES     
    3064 CH2         25.3226    13.6146   -36.8938 CH2           1 RES     
    3065 CH2         24.1744    13.9863   -35.9372 CH2           1 RES     
    3066 CH2         24.4062    13.3151   -34.5707 CH2           1 RES     
    3067 CH2         23.2580    13.6868   -33.6140 CH2           1 RES     
    3068 CH2         23.4898    13.0156   -32.2475 CH2           1 RES     
    3069 CH2         22.3416    13.3873   -31.2909 CH2           1 RES     
    3070 CH2         22.5734    12.7161   -29.9244 CH2           1 RES     
    3071 CH3         21.4774    13.0709   -29.0112 CH3           1 RES     
    3072 CH2         31.1748    13.7298   -49.2780 CH2           1 RES     
    3073 OE          32.2565    12.9611   -49.8972 OE            1 RES     
    3074 C           32.7593    12.2667   -48.6664 C             1 RES     
    3075 O           33.7001    11.4746   -48.6486 O             1 RES     
    3076 CH2         31.7914    12.5953   -47.7022 CH2           1 RES     
    3077 CH2         32.2457    11.7659   -46.4867 CH2           1 RES     
    3078 CH2         31.1889    11.8674   -45.3711 CH2           1 RES     
    3079 CH2         31.6432    11.0379   -44.1557 CH2           1 RES     
    3080 CH2         30.5865    11.1394   -43.0401 CH2           1 RES     
    3081 CH2         31.0408    10.3100   -41.8247 CH2           1 RES     
    3082 CH2         29.9840    10.4114   -40.7091 CH2           1 RES     
    3083 CH2         30.4383     9.5820   -39.4937 CH2           1 RES     
    3084 CH2         29.3816     9.6835   -38.3781 CH2           1 RES     
    3085 CH2         29.8359     8.8541   -37.1627 CH2           1 RES     
    3086 CH2         28.7791     8.9555   -36.0471 CH2           1 RES     
    3087 CH2         29.2334     8.1261   -34.8317 CH2           1 RES     
    3088 CH2         28.1767     8.2276   -33.7161 CH2           1 RES     
    3089 CH2         28.6310     7.3982   -32.5006 CH2           1 RES     
    3090 CH2         27.5742     7.4996   -31.3850 CH2           1 RES     
    3091 CH2         28.0285     6.6702   -30.1696 CH2           1 RES     
    3092 CH3         27.0198     6.7671   -29.1047 CH3           1 RES     
    3093 CH3         -0.0415    38.3406   -56.7654 CH3           1 RES     
    3094 CH3          1.0493    39.4149   -58.5512 CH3           1 RES     
    3095 CH3         -1.0378    39.8566   -58.0694 CH3           1 RES     
    3096 NL           0.1382    39.5059   -57.5746 NL            1 RES     
    3097 CH2          0.4351    40.5769   -56.7359 CH2           1 RES     
    3098 CH2          1.8026    40.1382   -56.1801 CH2           1 RES     
    3099 OA           2.3080    41.8935   -52.7280 OA            1 RES     
    3100 P            1.7817    40.8026   -53.7735 P             1 RES     
    3101 OM           2.3942    39.3953   -53.3212 OM            1 RES     
    3102 OM           0.1833    40.8705   -53.7477 OM            1 RES     
    3103 OA           2.3090    41.1692   -55.2389 OA            1 RES     
    3104 CH2          1.8006    41.5221   -51.3827 CH2           1 RES     
    3105 CH1          2.2882    42.5522   -50.3470 CH1           1 RES     
    3106 OE           1.1284    43.1897   -49.7070 OE            1 RES     
    3107 C            1.5260    42.7205   -48.3389 C             1 RES     
    3108 O            2.5255    42.0458   -48.0969 O             1 RES     
    3109 CH2          0.4127    43.0631   -47.5529 CH2           1 RES     
    3110 CH2          0.7770    42.4536   -46.1864 CH2           1 RES     
    3111 CH2         -0.4229    42.5823   -45.2298 CH2           1 RES     
    3112 CH2         -0.0586    41.9728   -43.8632 CH2           1 RES     
    3113 CH2         -1.2586    42.1014   -42.9066 CH2           1 RES     
    3114 CH2         -0.8942    41.4919   -41.5401 CH2           1 RES     
    3115 CH2         -2.0942    41.6205   -40.5835 CH2           1 RES     
    3116 CH2         -1.7299    41.0111   -39.2169 CH2           1 RES     
    3117 CH2         -2.9298    41.1397   -38.2603 CH2           1 RES     
    3118 CH2         -2.5655    40.5302   -36.8938 CH2           1 RES     
    3119 CH2         -3.7655    40.6588   -35.9372 CH2           1 RES     
    3120 CH2         -3.4011    40.0493   -34.5707 CH2           1 RES     
    3121 CH2         -4.6011    40.1780   -33.6140 CH2           1 RES     
    3122 CH2         -4.2368    39.5685   -32.2475 CH2           1 RES     
    3123 CH2         -5.4367    39.6971   -31.2909 CH2           1 RES     
    3124 CH2         -5.0724    39.0876   -29.9244 CH2           1 RES     
    3125 CH3         -6.2178    39.2104   -29.0112 CH3           1 RES     
    3126 CH2          3.1390    41.8416   -49.2780 CH2           1 RES     
    3127 OE           4.3553    41.3108   -49.8972 OE            1 RES     
    3128 C            4.9896    40.7340   -48.6664 C             1 RES     
    3129 O            6.0727    40.1514   -48.6486 O             1 RES     
    3130 CH2          3.9749    40.8575   -47.7022 CH2           1 RES     
    3131 CH2          4.5895    40.1387   -46.4867 CH2           1 RES     
    3132 CH2          3.5343    40.0215   -45.3711 CH2           1 RES     
    3133 CH2          4.1489    39.3027   -44.1557 CH2           1 RES     
    3134 CH2          3.0937    39.1856   -43.0401 CH2           1 RES     
    3135 CH2          3.7083    38.4668   -41.8247 CH2           1 RES     
    3136 CH2          2.6532    38.3497   -40.7091 CH2           1 RES     
    3137 CH2          3.2677    37.6309   -39.4937 CH2           1 RES     
    3138 CH2          2.2126    37.5138   -38.3781 CH2           1 RES     
    3139 CH2          2.8271    36.7950   -37.1627 CH2           1 RES     
    3140 CH2          1.7720    36.6779   -36.0471 CH2           1 RES     
    3141 CH2          2.3866    35.9591   -34.8317 CH2           1 RES     
    3142 CH2          1.3314    35.8419   -33.7161 CH2           1 RES     
    3143 CH2          1.9460    35.1232   -32.5006 CH2           1 RES     
    3144 CH2          0.8908    35.0060   -31.3850 CH2           1 RES     
    3145 CH2          1.5054    34.2872   -30.1696 CH2           1 RES     
    3146 CH3          0.4982    34.1754   -29.1047 CH3           1 RES     
    3147 CH3         16.3901    32.8634   -56.7654 CH3           1 RES     
    3148 CH3         17.6385    33.7497   -58.5512 CH3           1 RES     
    3149 CH3         15.6488    34.5190   -58.0694 CH3           1 RES     
    3150 NL          16.7537    33.9850   -57.5746 NL            1 RES     
    3151 CH2         17.2178    34.9948   -56.7359 CH2           1 RES     
    3152 CH2         18.4978    34.3433   -56.1801 CH2           1 RES     
    3153 OA          19.2770    35.9954   -52.7280 OA            1 RES     
    3154 P           18.5832    35.0025   -53.7735 P             1 RES     
    3155 OM          18.9631    33.5155   -53.3212 OM            1 RES     
    3156 OM          17.0162    35.3249   -53.7477 OM            1 RES     
    3157 OA          19.1623    35.2802   -55.2389 OA            1 RES     
    3158 CH2         18.7168    35.7098   -51.3827 CH2           1 RES     
    3159 CH1         19.3626    36.6488   -50.3470 CH1           1 RES     
    3160 OE          18.3196    37.4633   -49.7070 OE            1 RES     
    3161 C           18.6371    36.9367   -48.3389 C             1 RES     
    3162 O           19.5161    36.1110   -48.0969 O             1 RES     
    3163 CH2         17.5929    37.4527   -47.5529 CH2           1 RES     
    3164 CH2         17.8552    36.7928   -46.1864 CH2           1 RES     
    3165 CH2         16.6911    37.1115   -45.2298 CH2           1 RES     
    3166 CH2         16.9535    36.4516   -43.8632 CH2           1 RES     
    3167 CH2         15.7894    36.7703   -42.9066 CH2           1 RES     
    3168 CH2         16.0517    36.1104   -41.5401 CH2           1 RES     
    3169 CH2         14.8877    36.4291   -40.5835 CH2           1 RES     
    3170 CH2         15.1500    35.7692   -39.2169 CH2           1 RES     
    3171 CH2         13.9860    36.0879   -38.2603 CH2           1 RES     
    3172 CH2         14.2483    35.4280   -36.8938 CH2           1 RES     
    3173 CH2         13.0843    35.7466   -35.9372 CH2           1 RES     
    3174 CH2         13.3466    35.0868   -34.5707 CH2           1 RES     
    3175 CH2         12.1826    35.4054   -33.6140 CH2           1 RES     
    3176 CH2         12.4449    34.7456   -32.2475 CH2           1 RES     
    3177 CH2         11.2809    35.0642   -31.2909 CH2           1 RES     
    3178 CH2         11.5432    34.4044   -29.9244 CH2           1 RES     
    3179 CH3         10.4321    34.7085   -29.0112 CH3           1 RES     
    3180 CH2         20.0891    35.8114   -49.2780 CH2           1 RES     
    3181 OE          21.2049    35.0932   -49.8972 OE            1 RES     
    3182 C           21.7390    34.4225   -48.6664 C             1 RES     
    3183 O           22.7151    33.6743   -48.6486 O             1 RES     
    3184 CH2         20.7570    34.7064   -47.7022 CH2           1 RES     
    3185 CH2         21.2489    33.8987   -46.4867 CH2           1 RES     
    3186 CH2         20.1886    33.9516   -45.3711 CH2           1 RES     
    3187 CH2         20.6804    33.1438   -44.1557 CH2           1 RES     
    3188 CH2         19.6201    33.1968   -43.0401 CH2           1 RES     
    3189 CH2         20.1120    32.3890   -41.8247 CH2           1 RES     
    3190 CH2         19.0517    32.4419   -40.7091 CH2           1 RES     
    3191 CH2         19.5436    31.6342   -39.4937 CH2           1 RES     
    3192 CH2         18.4832    31.6871   -38.3781 CH2           1 RES     
    3193 CH2         18.9751    30.8794   -37.1627 CH2           1 RES     
    3194 CH2         17.9148    30.9323   -36.0471 CH2           1 RES     
    3195 CH2         18.4067    30.1246   -34.8317 CH2           1 RES     
    3196 CH2         17.3464    30.1775   -33.7161 CH2           1 RES     
    3197 CH2         17.8382    29.3698   -32.5006 CH2           1 RES     
    3198 CH2         16.7779    29.4227   -31.3850 CH2           1 RES     
    3199 CH2         17.2698    28.6150   -30.1696 CH2           1 RES     
    3200 CH3         16.2577    28.6655   -29.1047 CH3           1 RES     
    3201 CH3         32.8218     5.4772   -56.7654 CH3           1 RES     
    3202 CH3         34.0294     6.4184   -58.5512 CH3           1 RES     
    3203 CH3         32.0073     7.0982   -58.0694 CH3           1 RES     
    3204 NL          33.1349     6.6140   -57.5746 NL            1 RES     
    3205 CH2         33.5535     7.6435   -56.7359 CH2           1 RES     
    3206 CH2         34.8613     7.0498   -56.1801 CH2           1 RES     
    3207 OA          35.5659     8.7351   -52.7280 OA            1 RES     
    3208 P           34.9172     7.7122   -53.7735 P             1 RES     
    3209 OM          35.3630     6.2436   -53.3212 OM            1 RES     
    3210 OM          33.3374     7.9643   -53.7477 OM            1 RES     
    3211 OA          35.4833     8.0155   -55.2389 OA            1 RES     
    3212 CH2         35.0190     8.4247   -51.3827 CH2           1 RES     
    3213 CH1         35.6223     9.3916   -50.3470 CH1           1 RES     
    3214 OE          34.5440    10.1588   -49.7070 OE            1 RES     
    3215 C           34.8847     9.6468   -48.3389 C             1 RES     
    3216 O           35.7996     8.8612   -48.0969 O             1 RES     
    3217 CH2         33.8184    10.1157   -47.5529 CH2           1 RES     
    3218 CH2         34.1099     9.4682   -46.1864 CH2           1 RES     
    3219 CH2         32.9328     9.7346   -45.2298 CH2           1 RES     
    3220 CH2         33.2243     9.0871   -43.8632 CH2           1 RES     
    3221 CH2         32.0473     9.3534   -42.9066 CH2           1 RES     
    3222 CH2         32.3388     8.7059   -41.5401 CH2           1 RES     
    3223 CH2         31.1617     8.9723   -40.5835 CH2           1 RES     
    3224 CH2         31.4532     8.3248   -39.2169 CH2           1 RES     
    3225 CH2         30.2761     8.5912   -38.2603 CH2           1 RES     
    3226 CH2         30.5676     7.9437   -36.8938 CH2           1 RES     
    3227 CH2         29.3905     8.2100   -35.9372 CH2           1 RES     
    3228 CH2         29.6820     7.5625   -34.5707 CH2           1 RES     
    3229 CH2         28.5050     7.8289   -33.6140 CH2           1 RES     
    3230 CH2         28.7965     7.1814   -32.2475 CH2           1 RES     
    3231 CH2         27.6194     7.4478   -31.2909 CH2           1 RES     
    3232 CH2         27.9109     6.8003   -29.9244 CH2           1 RES     
    3233 CH3         26.7873     7.0545   -29.0112 CH3           1 RES     
    3234 CH2         36.3854     8.5875   -49.2780 CH2           1 RES     
    3235 OE          37.5322     7.9198   -49.8972 OE            1 RES     
    3236 C           38.0957     7.2736   -48.6664 C             1 RES     
    3237 O           39.1043     6.5698   -48.6486 O             1 RES     
    3238 CH2         37.1020     7.5134   -47.7022 CH2           1 RES     
    3239 CH2         37.6295     6.7285   -46.4867 CH2           1 RES     
    3240 CH2         36.5679     6.7340   -45.3711 CH2           1 RES     
    3241 CH2         37.0953     5.9490   -44.1557 CH2           1 RES     
    3242 CH2         36.0337     5.9545   -43.0401 CH2           1 RES     
    3243 CH2         36.5611     5.1696   -41.8247 CH2           1 RES     
    3244 CH2         35.4995     5.1751   -40.7091 CH2           1 RES     
    3245 CH2         36.0270     4.3901   -39.4937 CH2           1 RES     
    3246 CH2         34.9654     4.3956   -38.3781 CH2           1 RES     
    3247 CH2         35.4928     3.6107   -37.1627 CH2           1 RES     
    3248 CH2         34.4312     3.6162   -36.0471 CH2           1 RES     
    3249 CH2         34.9586     2.8312   -34.8317 CH2           1 RES     
    3250 CH2         33.8970     2.8368   -33.7161 CH2           1 RES     
    3251 CH2         34.4245     2.0518   -32.5006 CH2           1 RES     
    3252 CH2         33.3629     2.0573   -31.3850 CH2           1 RES     
    3253 CH2         33.8903     1.2724   -30.1696 CH2           1 RES     
    3254 CH3         32.8769     1.2776   -29.1047 CH3           1 RES     
    3255 CH3         -0.0415     5.4772   -56.7654 CH3           1 RES     
    3256 CH3          1.3062     6.2036   -58.5512 CH3           1 RES     
    3257 CH3         -0.5740     7.2114   -58.0694 CH3           1 RES     
    3258 NL           0.4570     6.5457   -57.5746 NL            1 RES     
    3259 CH2          1.0416     7.4909   -56.7359 CH2           1 RES     
    3260 CH2          2.2318     6.6873   -56.1801 CH2           1 RES     
    3261 OA           3.2080     8.2312   -52.7280 OA            1 RES     
    3262 P            2.3976     7.3310   -53.7735 P             1 RES     
    3263 OM           2.5920     5.8086   -53.3212 OM            1 RES     
    3264 OM           0.8820     7.8433   -53.7477 OM            1 RES     
    3265 OA           3.0064     7.5355   -55.2389 OA            1 RES     
    3266 CH2          2.6170     8.0165   -51.3827 CH2           1 RES     
    3267 CH1          3.3732     8.8691   -50.3470 CH1           1 RES     
    3268 OE           2.4381     9.8055   -49.7070 OE            1 RES     
    3269 C            2.6885     9.2439   -48.3389 C             1 RES     
    3270 O            3.4595     8.3165   -48.0969 O             1 RES     
    3271 CH2          1.7155     9.8842   -47.5529 CH2           1 RES     
    3272 CH2          1.8948     9.1971   -46.1864 CH2           1 RES     
    3273 CH2          0.7787     9.6563   -45.2298 CH2           1 RES     
    3274 CH2          0.9581     8.9692   -43.8632 CH2           1 RES     
    3275 CH2         -0.1580     9.4283   -42.9066 CH2           1 RES     
    3276 CH2          0.0213     8.7413   -41.5401 CH2           1 RES     
    3277 CH2         -1.0948     9.2004   -40.5835 CH2           1 RES     
    3278 CH2         -0.9155     8.5134   -39.2169 CH2           1 RES     
    3279 CH2         -2.0316     8.9725   -38.2603 CH2           1 RES     
    3280 CH2         -1.8523     8.2854   -36.8938 CH2           1 RES     
    3281 CH2         -2.9684     8.7446   -35.9372 CH2           1 RES     
    3282 CH2         -2.7891     8.0575   -34.5707 CH2           1 RES     
    3283 CH2         -3.9051     8.5166   -33.6140 CH2           1 RES     
    3284 CH2         -3.7258     7.8296   -32.2475 CH2           1 RES     
    3285 CH2         -4.8419     8.2887   -31.2909 CH2           1 RES     
    3286 CH2         -4.6626     7.6016   -29.9244 CH2           1 RES     
    3287 CH3         -5.7280     8.0399   -29.0112 CH3           1 RES     
    3288 CH2          3.9914     7.9489   -49.2780 CH2           1 RES     
    3289 OE           5.0106     7.0990   -49.8972 OE            1 RES     
    3290 C            5.4582     6.3678   -48.6664 C             1 RES     
    3291 O            6.3352     5.5055   -48.6486 O             1 RES     
    3292 CH2          4.5186     6.7702   -47.7022 CH2           1 RES     
    3293 CH2          4.9075     5.9082   -46.4867 CH2           1 RES     
    3294 CH2          3.8618     6.0909   -45.3711 CH2           1 RES     
    3295 CH2          4.2507     5.2289   -44.1557 CH2           1 RES     
    3296 CH2          3.2050     5.4116   -43.0401 CH2           1 RES     
    3297 CH2          3.5939     4.5496   -41.8247 CH2           1 RES     
    3298 CH2          2.5481     4.7322   -40.7091 CH2           1 RES     
    3299 CH2          2.9371     3.8702   -39.4937 CH2           1 RES     
    3300 CH2          1.8913     4.0529   -38.3781 CH2           1 RES     
    3301 CH2          2.2803     3.1909   -37.1627 CH2           1 RES     
    3302 CH2          1.2345     3.3736   -36.0471 CH2           1 RES     
    3303 CH2          1.6235     2.5116   -34.8317 CH2           1 RES     
    3304 CH2          0.5777     2.6943   -33.7161 CH2           1 RES     
    3305 CH2          0.9667     1.8323   -32.5006 CH2           1 RES     
    3306 CH2         -0.0791     2.0150   -31.3850 CH2           1 RES     
    3307 CH2          0.3099     1.1530   -30.1696 CH2           1 RES     
    3308 CH3         -0.6884     1.3274   -29.1047 CH3           1 RES     
    3309 CH3         27.3446    27.3861   -56.7654 CH3           1 RES     
    3310 CH3         28.4938    28.3977   -58.5512 CH3           1 RES     
    3311 CH3         26.4348    28.9556   -58.0694 CH3           1 RES     
    3312 NL          27.5893    28.5395   -57.5746 NL            1 RES     
    3313 CH2         27.9457    29.5922   -56.7359 CH2           1 RES     
    3314 CH2         29.2865    29.0776   -56.1801 CH2           1 RES     
    3315 OA          29.8894    30.8019   -52.7280 OA            1 RES     
    3316 P           29.3029    29.7422   -53.7735 P             1 RES     
    3317 OM          29.8355    28.3028   -53.3212 OM            1 RES     
    3318 OM          27.7108    29.8995   -53.7477 OM            1 RES     
    3319 OA          29.8499    30.0787   -55.2389 OA            1 RES     
    3320 CH2         29.3620    30.4595   -51.3827 CH2           1 RES     
    3321 CH1         29.9065    31.4607   -50.3470 CH1           1 RES     
    3322 OE          28.7843    32.1621   -49.7070 OE            1 RES     
    3323 C           29.1550    31.6714   -48.3389 C             1 RES     
    3324 O           30.1152    30.9417   -48.0969 O             1 RES     
    3325 CH2         28.0626    32.0758   -47.5529 CH2           1 RES     
    3326 CH2         28.3922    31.4469   -46.1864 CH2           1 RES     
    3327 CH2         27.2014    31.6425   -45.2298 CH2           1 RES     
    3328 CH2         27.5310    31.0136   -43.8632 CH2           1 RES     
    3329 CH2         26.3401    31.2092   -42.9066 CH2           1 RES     
    3330 CH2         26.6697    30.5803   -41.5401 CH2           1 RES     
    3331 CH2         25.4788    30.7759   -40.5835 CH2           1 RES     
    3332 CH2         25.8085    30.1470   -39.2169 CH2           1 RES     
    3333 CH2         24.6176    30.3426   -38.2603 CH2           1 RES     
    3334 CH2         24.9472    29.7137   -36.8938 CH2           1 RES     
    3335 CH2         23.7563    29.9093   -35.9372 CH2           1 RES     
    3336 CH2         24.0860    29.2804   -34.5707 CH2           1 RES     
    3337 CH2         22.8951    29.4760   -33.6140 CH2           1 RES     
    3338 CH2         23.2247    28.8471   -32.2475 CH2           1 RES     
    3339 CH2         22.0338    29.0427   -31.2909 CH2           1 RES     
    3340 CH2         22.3635    28.4138   -29.9244 CH2           1 RES     
    3341 CH3         21.2267    28.6005   -29.0112 CH3           1 RES     
    3342 CH2         30.7162    30.7035   -49.2780 CH2           1 RES     
    3343 OE          31.9008    30.1054   -49.8972 OE            1 RES     
    3344 C           32.5019    29.4940   -48.6664 C             1 RES     
    3345 O           33.5507    28.8517   -48.6486 O             1 RES     
    3346 CH2         31.4957    29.6741   -47.7022 CH2           1 RES     
    3347 CH2         32.0690    28.9220   -46.4867 CH2           1 RES     
    3348 CH2         31.0090    28.8642   -45.3711 CH2           1 RES     
    3349 CH2         31.5823    28.1121   -44.1557 CH2           1 RES     
    3350 CH2         30.5223    28.0542   -43.0401 CH2           1 RES     
    3351 CH2         31.0956    27.3022   -41.8247 CH2           1 RES     
    3352 CH2         30.0356    27.2443   -40.7091 CH2           1 RES     
    3353 CH2         30.6089    26.4922   -39.4937 CH2           1 RES     
    3354 CH2         29.5489    26.4344   -38.3781 CH2           1 RES     
    3355 CH2         30.1222    25.6823   -37.1627 CH2           1 RES     
    3356 CH2         29.0622    25.6245   -36.0471 CH2           1 RES     
    3357 CH2         29.6355    24.8724   -34.8317 CH2           1 RES     
    3358 CH2         28.5754    24.8145   -33.7161 CH2           1 RES     
    3359 CH2         29.1488    24.0624   -32.5006 CH2           1 RES     
    3360 CH2         28.0887    24.0046   -31.3850 CH2           1 RES     
    3361 CH2         28.6621    23.2525   -30.1696 CH2           1 RES     
    3362 CH3         27.6502    23.1973   -29.1047 CH3           1 RES     
    3363 CH3         38.2990    16.4317   -56.7654 CH3           1 RES     
    3364 CH3         39.6659    17.1215   -58.5512 CH3           1 RES     
    3365 CH3         37.8135    18.1795   -58.0694 CH3           1 RES     
    3366 NL          38.8261    17.4864   -57.5746 NL            1 RES     
    3367 CH2         39.4360    18.4155   -56.7359 CH2           1 RES     
    3368 CH2         40.6042    17.5801   -56.1801 CH2           1 RES     
    3369 OA          41.6215    19.0971   -52.7280 OA            1 RES     
    3370 P           40.7872    18.2191   -53.7735 P             1 RES     
    3371 OM          40.9405    16.6920   -53.3212 OM            1 RES     
    3372 OM          39.2860    18.7720   -53.7477 OM            1 RES     
    3373 OA          41.4013    18.4071   -55.2389 OA            1 RES     
    3374 CH2         41.0250    18.8984   -51.3827 CH2           1 RES     
    3375 CH1         41.8039    19.7304   -50.3470 CH1           1 RES     
    3376 OE          40.8943    20.6916   -49.7070 OE            1 RES     
    3377 C           41.1296    20.1234   -48.3389 C             1 RES     
    3378 O           41.8752    19.1756   -48.0969 O             1 RES     
    3379 CH2         40.1741    20.7897   -47.5529 CH2           1 RES     
    3380 CH2         40.3349    20.0981   -46.1864 CH2           1 RES     
    3381 CH2         39.2315    20.5871   -45.2298 CH2           1 RES     
    3382 CH2         39.3923    19.8955   -43.8632 CH2           1 RES     
    3383 CH2         38.2890    20.3845   -42.9066 CH2           1 RES     
    3384 CH2         38.4497    19.6929   -41.5401 CH2           1 RES     
    3385 CH2         37.3464    20.1819   -40.5835 CH2           1 RES     
    3386 CH2         37.5071    19.4902   -39.2169 CH2           1 RES     
    3387 CH2         36.4038    19.9793   -38.2603 CH2           1 RES     
    3388 CH2         36.5646    19.2876   -36.8938 CH2           1 RES     
    3389 CH2         35.4612    19.7766   -35.9372 CH2           1 RES     
    3390 CH2         35.6220    19.0850   -34.5707 CH2           1 RES     
    3391 CH2         34.5187    19.5740   -33.6140 CH2           1 RES     
    3392 CH2         34.6794    18.8824   -32.2475 CH2           1 RES     
    3393 CH2         33.5761    19.3714   -31.2909 CH2           1 RES     
    3394 CH2         33.7368    18.6797   -29.9244 CH2           1 RES     
    3395 CH3         32.6837    19.1465   -29.0112 CH3           1 RES     
    3396 CH2         42.3970    18.7938   -49.2780 CH2           1 RES     
    3397 OE          43.3930    17.9169   -49.8972 OE            1 RES     
    3398 C           43.8208    17.1739   -48.6664 C             1 RES     
    3399 O           44.6742    16.2883   -48.6486 O             1 RES     
    3400 CH2         42.8923    17.6014   -47.7022 CH2           1 RES     
    3401 CH2         43.2579    16.7292   -46.4867 CH2           1 RES     
    3402 CH2         42.2174    16.9400   -45.3711 CH2           1 RES     
    3403 CH2         42.5831    16.0678   -44.1557 CH2           1 RES     
    3404 CH2         41.5426    16.2786   -43.0401 CH2           1 RES     
    3405 CH2         41.9082    15.4065   -41.8247 CH2           1 RES     
    3406 CH2         40.8677    15.6172   -40.7091 CH2           1 RES     
    3407 CH2         41.2333    14.7451   -39.4937 CH2           1 RES     
    3408 CH2         40.1929    14.9559   -38.3781 CH2           1 RES     
    3409 CH2         40.5585    14.0837   -37.1627 CH2           1 RES     
    3410 CH2         39.5180    14.2945   -36.0471 CH2           1 RES     
    3411 CH2         39.8836    13.4223   -34.8317 CH2           1 RES     
    3412 CH2         38.8431    13.6331   -33.7161 CH2           1 RES     
    3413 CH2         39.2088    12.7609   -32.5006 CH2           1 RES     
    3414 CH2         38.1683    12.9717   -31.3850 CH2           1 RES     
    3415 CH2         38.5339    12.0995   -30.1696 CH2           1 RES     
    3416 CH3         37.5407    12.3007   -29.1047 CH3           1 RES     
    3417 CH3         32.8218    10.9545   -56.7654 CH3           1 RES     
    3418 CH3         33.6930    12.2135   -58.5512 CH3           1 RES     
    3419 CH3         31.5602    12.2579   -58.0694 CH3           1 RES     
    3420 NL          32.7809    12.1328   -57.5746 NL            1 RES     
    3421 CH2         32.8727    13.2404   -56.7359 CH2           1 RES     
    3422 CH2         34.2981    13.0647   -56.1801 CH2           1 RES     
    3423 OA          34.4670    14.8834   -52.7280 OA            1 RES     
    3424 P           34.1535    13.7135   -53.7735 P             1 RES     
    3425 OM          35.0179    12.4453   -53.3212 OM            1 RES     
    3426 OM          32.5706    13.4819   -53.7477 OM            1 RES     
    3427 OA          34.6032    14.1721   -55.2389 OA            1 RES     
    3428 CH2         34.0378    14.4239   -51.3827 CH2           1 RES     
    3429 CH1         34.3246    15.5269   -50.3470 CH1           1 RES     
    3430 OE          33.0663    15.9367   -49.7070 OE            1 RES     
    3431 C           33.5444    15.5500   -48.3389 C             1 RES     
    3432 O           34.6523    15.0736   -48.0969 O             1 RES     
    3433 CH2         32.3867    15.6788   -47.5529 CH2           1 RES     
    3434 CH2         32.8584    15.1480   -46.1864 CH2           1 RES     
    3435 CH2         31.6555    15.0504   -45.2298 CH2           1 RES     
    3436 CH2         32.1272    14.5196   -43.8632 CH2           1 RES     
    3437 CH2         30.9243    14.4221   -42.9066 CH2           1 RES     
    3438 CH2         31.3960    13.8913   -41.5401 CH2           1 RES     
    3439 CH2         30.1931    13.7937   -40.5835 CH2           1 RES     
    3440 CH2         30.6648    13.2629   -39.2169 CH2           1 RES     
    3441 CH2         29.4619    13.1653   -38.2603 CH2           1 RES     
    3442 CH2         29.9336    12.6346   -36.8938 CH2           1 RES     
    3443 CH2         28.7307    12.5370   -35.9372 CH2           1 RES     
    3444 CH2         29.2024    12.0062   -34.5707 CH2           1 RES     
    3445 CH2         27.9995    11.9086   -33.6140 CH2           1 RES     
    3446 CH2         28.4711    11.3778   -32.2475 CH2           1 RES     
    3447 CH2         27.2683    11.2803   -31.2909 CH2           1 RES     
    3448 CH2         27.7399    10.7495   -29.9244 CH2           1 RES     
    3449 CH3         26.5917    10.6563   -29.0112 CH3           1 RES     
    3450 CH2         35.2931    14.9875   -49.2780 CH2           1 RES     
    3451 OE          36.5871    14.6930   -49.8972 OE            1 RES     
    3452 C           37.3179    14.2448   -48.6664 C             1 RES     
    3453 O           38.4907    13.8745   -48.6486 O             1 RES     
    3454 CH2         36.2980    14.1767   -47.7022 CH2           1 RES     
    3455 CH2         37.0359    13.5852   -46.4867 CH2           1 RES     
    3456 CH2         36.0211    13.2732   -45.3711 CH2           1 RES     
    3457 CH2         36.7590    12.6817   -44.1557 CH2           1 RES     
    3458 CH2         35.7443    12.3698   -43.0401 CH2           1 RES     
    3459 CH2         36.4822    11.7783   -41.8247 CH2           1 RES     
    3460 CH2         35.4675    11.4663   -40.7091 CH2           1 RES     
    3461 CH2         36.2054    10.8748   -39.4937 CH2           1 RES     
    3462 CH2         35.1906    10.5629   -38.3781 CH2           1 RES     
    3463 CH2         35.9285     9.9714   -37.1627 CH2           1 RES     
    3464 CH2         34.9138     9.6594   -36.0471 CH2           1 RES     
    3465 CH2         35.6517     9.0679   -34.8317 CH2           1 RES     
    3466 CH2         34.6370     8.7559   -33.7161 CH2           1 RES     
    3467 CH2         35.3749     8.1645   -32.5006 CH2           1 RES     
    3468 CH2         34.3601     7.8525   -31.3850 CH2           1 RES     
    3469 CH2         35.0980     7.2610   -30.1696 CH2           1 RES     
    3470 CH3         34.1294     6.9632   -29.1047 CH3           1 RES     
    3471 CH3          5.4357    32.8634   -56.7654 CH3           1 RES     
    3472 CH3          6.5130    33.9512   -58.5512 CH3           1 RES     
    3473 CH3          4.4207    34.3669   -58.0694 CH3           1 RES     
    3474 NL           5.6009    34.0308   -57.5746 NL            1 RES     
    3475 CH2          5.8844    35.1054   -56.7359 CH2           1 RES     
    3476 CH2          7.2574    34.6838   -56.1801 CH2           1 RES     
    3477 OA           7.7408    36.4452   -52.7280 OA            1 RES     
    3478 P            7.2282    35.3478   -53.7735 P             1 RES     
    3479 OM           7.8581    33.9483   -53.3212 OM            1 RES     
    3480 OM           5.6291    35.3959   -53.7477 OM            1 RES     
    3481 OA           7.7509    35.7210   -55.2389 OA            1 RES     
    3482 CH2          7.2381    36.0675   -51.3827 CH2           1 RES     
    3483 CH1          7.7128    37.1036   -50.3470 CH1           1 RES     
    3484 OE           6.5453    37.7266   -49.7070 OE            1 RES     
    3485 C            6.9486    37.2624   -48.3389 C             1 RES     
    3486 O            7.9565    36.6002   -48.0969 O             1 RES     
    3487 CH2          5.8312    37.5912   -47.5529 CH2           1 RES     
    3488 CH2          6.2030    36.9863   -46.1864 CH2           1 RES     
    3489 CH2          5.0016    37.1000   -45.2298 CH2           1 RES     
    3490 CH2          5.3735    36.4951   -43.8632 CH2           1 RES     
    3491 CH2          4.1720    36.6087   -42.9066 CH2           1 RES     
    3492 CH2          4.5439    36.0038   -41.5401 CH2           1 RES     
    3493 CH2          3.3424    36.1175   -40.5835 CH2           1 RES     
    3494 CH2          3.7143    35.5126   -39.2169 CH2           1 RES     
    3495 CH2          2.5128    35.6263   -38.2603 CH2           1 RES     
    3496 CH2          2.8847    35.0214   -36.8938 CH2           1 RES     
    3497 CH2          1.6832    35.1351   -35.9372 CH2           1 RES     
    3498 CH2          2.0551    34.5302   -34.5707 CH2           1 RES     
    3499 CH2          0.8536    34.6439   -33.6140 CH2           1 RES     
    3500 CH2          1.2255    34.0390   -32.2475 CH2           1 RES     
    3501 CH2          0.0240    34.1527   -31.2909 CH2           1 RES     
    3502 CH2          0.3959    33.5478   -29.9244 CH2           1 RES     
    3503 CH3         -0.7509    33.6563   -29.0112 CH3           1 RES     
    3504 CH2          8.5725    36.4037   -49.2780 CH2           1 RES     
    3505 OE           9.7952    35.8880   -49.8972 OE            1 RES     
    3506 C           10.4367    35.3192   -48.6664 C             1 RES     
    3507 O           11.5269    34.7501   -48.6486 O             1 RES     
    3508 CH2          9.4205    35.4300   -47.7022 CH2           1 RES     
    3509 CH2         10.0440    34.7189   -46.4867 CH2           1 RES     
    3510 CH2          8.9904    34.5886   -45.3711 CH2           1 RES     
    3511 CH2          9.6138    33.8776   -44.1557 CH2           1 RES     
    3512 CH2          8.5602    33.7473   -43.0401 CH2           1 RES     
    3513 CH2          9.1837    33.0362   -41.8247 CH2           1 RES     
    3514 CH2          8.1301    32.9060   -40.7091 CH2           1 RES     
    3515 CH2          8.7535    32.1949   -39.4937 CH2           1 RES     
    3516 CH2          7.6999    32.0647   -38.3781 CH2           1 RES     
    3517 CH2          8.3234    31.3536   -37.1627 CH2           1 RES     
    3518 CH2          7.2698    31.2233   -36.0471 CH2           1 RES     
    3519 CH2          7.8932    30.5122   -34.8317 CH2           1 RES     
    3520 CH2          6.8396    30.3820   -33.7161 CH2           1 RES     
    3521 CH2          7.4631    29.6709   -32.5006 CH2           1 RES     
    3522 CH2          6.4095    29.5407   -31.3850 CH2           1 RES     
    3523 CH2          7.0329    28.8296   -30.1696 CH2           1 RES     
    3524 CH3          6.0272    28.7052   -29.1047 CH3           1 RES     
    3525 CH3         38.2990    21.9089   -56.7654 CH3           1 RES     
    3526 CH3         39.6434    22.6415   -58.5512 CH3           1 RES     
    3527 CH3         37.7586    23.6406   -58.0694 CH3           1 RES     
    3528 NL          38.7926    22.9797   -57.5746 NL            1 RES     
    3529 CH2         39.3728    23.9276   -56.7359 CH2           1 RES     
    3530 CH2         40.5668    23.1295   -56.1801 CH2           1 RES     
    3531 OA          41.5357    24.6779   -52.7280 OA            1 RES     
    3532 P           40.7295    23.7740   -53.7735 P             1 RES     
    3533 OM          40.9310    22.2525   -53.3212 OM            1 RES     
    3534 OM          39.2116    24.2792   -53.7477 OM            1 RES     
    3535 OA          41.3374    23.9813   -55.2389 OA            1 RES     
    3536 CH2         40.9457    24.4605   -51.3827 CH2           1 RES     
    3537 CH1         41.6980    25.3166   -50.3470 CH1           1 RES     
    3538 OE          40.7585    26.2487   -49.7070 OE            1 RES     
    3539 C           41.0116    25.6882   -48.3389 C             1 RES     
    3540 O           41.7868    24.7644   -48.0969 O             1 RES     
    3541 CH2         40.0356    26.3240   -47.5529 CH2           1 RES     
    3542 CH2         40.2181    25.6378   -46.1864 CH2           1 RES     
    3543 CH2         39.0999    26.0917   -45.2298 CH2           1 RES     
    3544 CH2         39.2824    25.4055   -43.8632 CH2           1 RES     
    3545 CH2         38.1642    25.8594   -42.9066 CH2           1 RES     
    3546 CH2         38.3467    25.1732   -41.5401 CH2           1 RES     
    3547 CH2         37.2285    25.6272   -40.5835 CH2           1 RES     
    3548 CH2         37.4110    24.9409   -39.2169 CH2           1 RES     
    3549 CH2         36.2928    25.3949   -38.2603 CH2           1 RES     
    3550 CH2         36.4753    24.7087   -36.8938 CH2           1 RES     
    3551 CH2         35.3570    25.1626   -35.9372 CH2           1 RES     
    3552 CH2         35.5396    24.4764   -34.5707 CH2           1 RES     
    3553 CH2         34.4213    24.9303   -33.6140 CH2           1 RES     
    3554 CH2         34.6038    24.2441   -32.2475 CH2           1 RES     
    3555 CH2         33.4856    24.6980   -31.2909 CH2           1 RES     
    3556 CH2         33.6681    24.0118   -29.9244 CH2           1 RES     
    3557 CH3         32.6007    24.4451   -29.0112 CH3           1 RES     
    3558 CH2         42.3204    24.3993   -49.2780 CH2           1 RES     
    3559 OE          43.3436    23.5542   -49.8972 OE            1 RES     
    3560 C           43.7946    22.8251   -48.6664 C             1 RES     
    3561 O           44.6755    21.9669   -48.6486 O             1 RES     
    3562 CH2         42.8531    23.2231   -47.7022 CH2           1 RES     
    3563 CH2         43.2461    22.3629   -46.4867 CH2           1 RES     
    3564 CH2         42.1994    22.5407   -45.3711 CH2           1 RES     
    3565 CH2         42.5924    21.6805   -44.1557 CH2           1 RES     
    3566 CH2         41.5458    21.8583   -43.0401 CH2           1 RES     
    3567 CH2         41.9388    20.9981   -41.8247 CH2           1 RES     
    3568 CH2         40.8922    21.1760   -40.7091 CH2           1 RES     
    3569 CH2         41.2851    20.3158   -39.4937 CH2           1 RES     
    3570 CH2         40.2385    20.4936   -38.3781 CH2           1 RES     
    3571 CH2         40.6315    19.6334   -37.1627 CH2           1 RES     
    3572 CH2         39.5849    19.8112   -36.0471 CH2           1 RES     
    3573 CH2         39.9778    18.9511   -34.8317 CH2           1 RES     
    3574 CH2         38.9312    19.1289   -33.7161 CH2           1 RES     
    3575 CH2         39.3242    18.2687   -32.5006 CH2           1 RES     
    3576 CH2         38.2776    18.4465   -31.3850 CH2           1 RES     
    3577 CH2         38.6706    17.5863   -30.1696 CH2           1 RES     
    3578 CH3         37.6715    17.7561   -29.1047 CH3           1 RES     
    3579 CH3         32.8218    27.3861   -56.7654 CH3           1 RES     
    3580 CH3         33.8237    28.5439   -58.5512 CH3           1 RES     
    3581 CH3         31.7081    28.8181   -58.0694 CH3           1 RES     
    3582 NL          32.9082    28.5620   -57.5746 NL            1 RES     
    3583 CH2         33.1190    29.6532   -56.7359 CH2           1 RES     
    3584 CH2         34.5171    29.3248   -56.1801 CH2           1 RES     
    3585 OA          34.8811    31.1148   -52.7280 OA            1 RES     
    3586 P           34.4434    29.9854   -53.7735 P             1 RES     
    3587 OM          35.1659    28.6314   -53.3212 OM            1 RES     
    3588 OM          32.8447    29.9260   -53.7477 OM            1 RES     
    3589 OA          34.9398    30.3928   -55.2389 OA            1 RES     
    3590 CH2         34.4050    30.7041   -51.3827 CH2           1 RES     
    3591 CH1         34.8090    31.7698   -50.3470 CH1           1 RES     
    3592 OE          33.6022    32.3130   -49.7070 OE            1 RES     
    3593 C           34.0359    31.8769   -48.3389 C             1 RES     
    3594 O           35.0859    31.2838   -48.0969 O             1 RES     
    3595 CH2         32.8988    32.1298   -47.5529 CH2           1 RES     
    3596 CH2         33.3105    31.5513   -46.1864 CH2           1 RES     
    3597 CH2         32.1041    31.5840   -45.2298 CH2           1 RES     
    3598 CH2         32.5158    31.0054   -43.8632 CH2           1 RES     
    3599 CH2         31.3094    31.0382   -42.9066 CH2           1 RES     
    3600 CH2         31.7211    30.4596   -41.5401 CH2           1 RES     
    3601 CH2         30.5147    30.4924   -40.5835 CH2           1 RES     
    3602 CH2         30.9264    29.9138   -39.2169 CH2           1 RES     
    3603 CH2         29.7200    29.9465   -38.2603 CH2           1 RES     
    3604 CH2         30.1316    29.3680   -36.8938 CH2           1 RES     
    3605 CH2         28.9252    29.4007   -35.9372 CH2           1 RES     
    3606 CH2         29.3369    28.8221   -34.5707 CH2           1 RES     
    3607 CH2         28.1305    28.8549   -33.6140 CH2           1 RES     
    3608 CH2         28.5422    28.2763   -32.2475 CH2           1 RES     
    3609 CH2         27.3358    28.3091   -31.2909 CH2           1 RES     
    3610 CH2         27.7475    27.7305   -29.9244 CH2           1 RES     
    3611 CH3         26.5959    27.7617   -29.0112 CH3           1 RES     
    3612 CH2         35.7137    31.1291   -49.2780 CH2           1 RES     
    3613 OE          36.9683    30.6968   -49.8972 OE            1 RES     
    3614 C           37.6465    30.1723   -48.6664 C             1 RES     
    3615 O           38.7726    29.6777   -48.6486 O             1 RES     
    3616 CH2         36.6252    30.2146   -47.7022 CH2           1 RES     
    3617 CH2         37.2950    29.5470   -46.4867 CH2           1 RES     
    3618 CH2         36.2526    29.3463   -45.3711 CH2           1 RES     
    3619 CH2         36.9224    28.6787   -44.1557 CH2           1 RES     
    3620 CH2         35.8799    28.4780   -43.0401 CH2           1 RES     
    3621 CH2         36.5497    27.8103   -41.8247 CH2           1 RES     
    3622 CH2         35.5072    27.6096   -40.7091 CH2           1 RES     
    3623 CH2         36.1770    26.9420   -39.4937 CH2           1 RES     
    3624 CH2         35.1346    26.7413   -38.3781 CH2           1 RES     
    3625 CH2         35.8044    26.0737   -37.1627 CH2           1 RES     
    3626 CH2         34.7619    25.8730   -36.0471 CH2           1 RES     
    3627 CH2         35.4317    25.2054   -34.8317 CH2           1 RES     
    3628 CH2         34.3892    25.0047   -33.7161 CH2           1 RES     
    3629 CH2         35.0590    24.3371   -32.5006 CH2           1 RES     
    3630 CH2         34.0166    24.1363   -31.3850 CH2           1 RES     
    3631 CH2         34.6864    23.4687   -30.1696 CH2           1 RES     
    3632 CH3         33.6913    23.2771   -29.1047 CH3           1 RES     
    3633 CH3         27.3446     0.0000   -56.7654 CH3           1 RES     
    3634 CH3         28.6763     0.7553   -58.5512 CH3           1 RES     
    3635 CH3         26.7748     1.7222   -58.0694 CH3           1 RES     
    3636 NL          27.8198     1.0790   -57.5746 NL            1 RES     
    3637 CH2         28.3839     2.0367   -56.7359 CH2           1 RES     
    3638 CH2         29.5913     1.2589   -56.1801 CH2           1 RES     
    3639 OA          30.5338     2.8236   -52.7280 OA            1 RES     
    3640 P           29.7430     1.9061   -53.7735 P             1 RES     
    3641 OM          29.9703     0.3883   -53.3212 OM            1 RES     
    3642 OM          28.2168     2.3855   -53.7477 OM            1 RES     
    3643 OA          30.3473     2.1237   -55.2389 OA            1 RES     
    3644 CH2         29.9475     2.5962   -51.3827 CH2           1 RES     
    3645 CH1         30.6852     3.4650   -50.3470 CH1           1 RES     
    3646 OE          29.7300     4.3809   -49.7070 OE            1 RES     
    3647 C           29.9925     3.8248   -48.3389 C             1 RES     
    3648 O           30.7833     2.9143   -48.0969 O             1 RES     
    3649 CH2         29.0059     4.4440   -47.5529 CH2           1 RES     
    3650 CH2         29.2000     3.7609   -46.1864 CH2           1 RES     
    3651 CH2         28.0743     4.1958   -45.2298 CH2           1 RES     
    3652 CH2         28.2684     3.5128   -43.8632 CH2           1 RES     
    3653 CH2         27.1426     3.9477   -42.9066 CH2           1 RES     
    3654 CH2         27.3368     3.2646   -41.5401 CH2           1 RES     
    3655 CH2         26.2110     3.6995   -40.5835 CH2           1 RES     
    3656 CH2         26.4051     3.0165   -39.2169 CH2           1 RES     
    3657 CH2         25.2794     3.4514   -38.2603 CH2           1 RES     
    3658 CH2         25.4735     2.7684   -36.8938 CH2           1 RES     
    3659 CH2         24.3477     3.2032   -35.9372 CH2           1 RES     
    3660 CH2         24.5419     2.5202   -34.5707 CH2           1 RES     
    3661 CH2         23.4161     2.9551   -33.6140 CH2           1 RES     
    3662 CH2         23.6103     2.2721   -32.2475 CH2           1 RES     
    3663 CH2         22.4845     2.7070   -31.2909 CH2           1 RES     
    3664 CH2         22.6786     2.0239   -29.9244 CH2           1 RES     
    3665 CH3         21.6040     2.4391   -29.0112 CH3           1 RES     
    3666 CH2         31.3231     2.5583   -49.2780 CH2           1 RES     
    3667 OE          32.3604     1.7308   -49.8972 OE            1 RES     
    3668 C           32.8238     1.0094   -48.6664 C             1 RES     
    3669 O           33.7192     0.1663   -48.6486 O             1 RES     
    3670 CH2         31.8757     1.3913   -47.7022 CH2           1 RES     
    3671 CH2         32.2832     0.5379   -46.4867 CH2           1 RES     
    3672 CH2         31.2337     0.6980   -45.3711 CH2           1 RES     
    3673 CH2         31.6412    -0.1554   -44.1557 CH2           1 RES     
    3674 CH2         30.5917     0.0046   -43.0401 CH2           1 RES     
    3675 CH2         30.9993    -0.8488   -41.8247 CH2           1 RES     
    3676 CH2         29.9498    -0.6888   -40.7091 CH2           1 RES     
    3677 CH2         30.3573    -1.5422   -39.4937 CH2           1 RES     
    3678 CH2         29.3078    -1.3821   -38.3781 CH2           1 RES     
    3679 CH2         29.7154    -2.2355   -37.1627 CH2           1 RES     
    3680 CH2         28.6659    -2.0755   -36.0471 CH2           1 RES     
    3681 CH2         29.0734    -2.9289   -34.8317 CH2           1 RES     
    3682 CH2         28.0239    -2.7689   -33.7161 CH2           1 RES     
    3683 CH2         28.4314    -3.6223   -32.5006 CH2           1 RES     
    3684 CH2         27.3820    -3.4622   -31.3850 CH2           1 RES     
    3685 CH2         27.7895    -4.3156   -30.1696 CH2           1 RES     
    3686 CH3         26.7877    -4.1629   -29.1047 CH3           1 RES     
    3687 CH3         21.8674    10.9545   -56.7654 CH3           1 RES     
    3688 CH3         22.9272    12.0593   -58.5512 CH3           1 RES     
    3689 CH3         20.8285    12.4416   -58.0694 CH3           1 RES     
    3690 NL          22.0139    12.1244   -57.5746 NL            1 RES     
    3691 CH2         22.2802    13.2034   -56.7359 CH2           1 RES     
    3692 CH2         23.6597    12.8037   -56.1801 CH2           1 RES     
    3693 OA          24.1150    14.5727   -52.7280 OA            1 RES     
    3694 P           23.6199    13.4673   -53.7735 P             1 RES     
    3695 OM          24.2721    12.0780   -53.3212 OM            1 RES     
    3696 OM          22.0203    13.4898   -53.7477 OM            1 RES     
    3697 OA          24.1366    13.8487   -55.2389 OA            1 RES     
    3698 CH2         23.6184    14.1870   -51.3827 CH2           1 RES     
    3699 CH1         24.0765    15.2306   -50.3470 CH1           1 RES     
    3700 OE          22.8991    15.8348   -49.7070 OE            1 RES     
    3701 C           23.3098    15.3771   -48.3389 C             1 RES     
    3702 O           24.3281    14.7311   -48.0969 O             1 RES     
    3703 CH2         22.1872    15.6880   -47.5529 CH2           1 RES     
    3704 CH2         22.5688    15.0891   -46.1864 CH2           1 RES     
    3705 CH2         21.3656    15.1836   -45.2298 CH2           1 RES     
    3706 CH2         21.7471    14.5847   -43.8632 CH2           1 RES     
    3707 CH2         20.5440    14.6792   -42.9066 CH2           1 RES     
    3708 CH2         20.9255    14.0803   -41.5401 CH2           1 RES     
    3709 CH2         19.7223    14.1748   -40.5835 CH2           1 RES     
    3710 CH2         20.1039    13.5759   -39.2169 CH2           1 RES     
    3711 CH2         18.9007    13.6704   -38.2603 CH2           1 RES     
    3712 CH2         19.2822    13.0715   -36.8938 CH2           1 RES     
    3713 CH2         18.0791    13.1660   -35.9372 CH2           1 RES     
    3714 CH2         18.4606    12.5671   -34.5707 CH2           1 RES     
    3715 CH2         17.2574    12.6616   -33.6140 CH2           1 RES     
    3716 CH2         17.6390    12.0627   -32.2475 CH2           1 RES     
    3717 CH2         16.4358    12.1572   -31.2909 CH2           1 RES     
    3718 CH2         16.8173    11.5583   -29.9244 CH2           1 RES     
    3719 CH3         15.6689    11.6485   -29.0112 CH3           1 RES     
    3720 CH2         24.9472    14.5444   -49.2780 CH2           1 RES     
    3721 OE          26.1780    14.0484   -49.8972 OE            1 RES     
    3722 C           26.8285    13.4898   -48.6664 C             1 RES     
    3723 O           27.9277    12.9383   -48.6486 O             1 RES     
    3724 CH2         25.8107    13.5844   -47.7022 CH2           1 RES     
    3725 CH2         26.4454    12.8834   -46.4867 CH2           1 RES     
    3726 CH2         25.3940    12.7363   -45.3711 CH2           1 RES     
    3727 CH2         26.0287    12.0353   -44.1557 CH2           1 RES     
    3728 CH2         24.9774    11.8882   -43.0401 CH2           1 RES     
    3729 CH2         25.6121    11.1872   -41.8247 CH2           1 RES     
    3730 CH2         24.5607    11.0401   -40.7091 CH2           1 RES     
    3731 CH2         25.1954    10.3391   -39.4937 CH2           1 RES     
    3732 CH2         24.1441    10.1920   -38.3781 CH2           1 RES     
    3733 CH2         24.7788     9.4910   -37.1627 CH2           1 RES     
    3734 CH2         23.7274     9.3439   -36.0471 CH2           1 RES     
    3735 CH2         24.3621     8.6429   -34.8317 CH2           1 RES     
    3736 CH2         23.3107     8.4958   -33.7161 CH2           1 RES     
    3737 CH2         23.9455     7.7948   -32.5006 CH2           1 RES     
    3738 CH2         22.8941     7.6477   -31.3850 CH2           1 RES     
    3739 CH2         23.5288     6.9467   -30.1696 CH2           1 RES     
    3740 CH3         22.5252     6.8063   -29.1047 CH3           1 RES     
    3741 CH3         10.9129     0.0000   -56.7654 CH3           1 RES     
    3742 CH3         11.9509     1.1254   -58.5512 CH3           1 RES     
    3743 CH3          9.8451     1.4665   -58.0694 CH3           1 RES     
    3744 NL          11.0365     1.1726   -57.5746 NL            1 RES     
    3745 CH2         11.2817     2.2566   -56.7359 CH2           1 RES     
    3746 CH2         12.6688     1.8840   -56.1801 CH2           1 RES     
    3747 OA          13.0893     3.6615   -52.7280 OA            1 RES     
    3748 P           12.6160     2.5466   -53.7735 P             1 RES     
    3749 OM          13.2952     1.1704   -53.3212 OM            1 RES     
    3750 OM          11.0162     2.5378   -53.7477 OM            1 RES     
    3751 OA          13.1251     2.9381   -55.2389 OA            1 RES     
    3752 CH2         12.6004     3.2662   -51.3827 CH2           1 RES     
    3753 CH1         13.0380     4.3185   -50.3470 CH1           1 RES     
    3754 OE          11.8490     4.8996   -49.7070 OE            1 RES     
    3755 C           12.2686     4.4501   -48.3389 C             1 RES     
    3756 O           13.2994     3.8240   -48.0969 O             1 RES     
    3757 CH2         11.1402     4.7389   -47.5529 CH2           1 RES     
    3758 CH2         11.5333     4.1476   -46.1864 CH2           1 RES     
    3759 CH2         10.3286     4.2185   -45.2298 CH2           1 RES     
    3760 CH2         10.7217     3.6272   -43.8632 CH2           1 RES     
    3761 CH2          9.5169     3.6981   -42.9066 CH2           1 RES     
    3762 CH2          9.9101     3.1068   -41.5401 CH2           1 RES     
    3763 CH2          8.7053     3.1778   -40.5835 CH2           1 RES     
    3764 CH2          9.0985     2.5864   -39.2169 CH2           1 RES     
    3765 CH2          7.8937     2.6574   -38.2603 CH2           1 RES     
    3766 CH2          8.2869     2.0661   -36.8938 CH2           1 RES     
    3767 CH2          7.0821     2.1370   -35.9372 CH2           1 RES     
    3768 CH2          7.4752     1.5457   -34.5707 CH2           1 RES     
    3769 CH2          6.2705     1.6166   -33.6140 CH2           1 RES     
    3770 CH2          6.6636     1.0253   -32.2475 CH2           1 RES     
    3771 CH2          5.4589     1.0962   -31.2909 CH2           1 RES     
    3772 CH2          5.8520     0.5049   -29.9244 CH2           1 RES     
    3773 CH3          4.7020     0.5726   -29.0112 CH3           1 RES     
    3774 CH2         13.9219     3.6495   -49.2780 CH2           1 RES     
    3775 OE          15.1622     3.1777   -49.8972 OE            1 RES     
    3776 C           15.8235     2.6319   -48.6664 C             1 RES     
    3777 O           16.9333     2.1019   -48.6486 O             1 RES     
    3778 CH2         14.8040     2.7066   -47.7022 CH2           1 RES     
    3779 CH2         15.4524     2.0181   -46.4867 CH2           1 RES     
    3780 CH2         14.4040     1.8505   -45.3711 CH2           1 RES     
    3781 CH2         15.0524     1.1620   -44.1557 CH2           1 RES     
    3782 CH2         14.0041     0.9944   -43.0401 CH2           1 RES     
    3783 CH2         14.6524     0.3059   -41.8247 CH2           1 RES     
    3784 CH2         13.6041     0.1383   -40.7091 CH2           1 RES     
    3785 CH2         14.2524    -0.5502   -39.4937 CH2           1 RES     
    3786 CH2         13.2041    -0.7178   -38.3781 CH2           1 RES     
    3787 CH2         13.8524    -1.4063   -37.1627 CH2           1 RES     
    3788 CH2         12.8041    -1.5738   -36.0471 CH2           1 RES     
    3789 CH2         13.4524    -2.2623   -34.8317 CH2           1 RES     
    3790 CH2         12.4041    -2.4299   -33.7161 CH2           1 RES     
    3791 CH2         13.0524    -3.1184   -32.5006 CH2           1 RES     
    3792 CH2         12.0041    -3.2860   -31.3850 CH2           1 RES     
    3793 CH2         12.6524    -3.9745   -30.1696 CH2           1 RES     
    3794 CH3         11.6518    -4.1345   -29.1047 CH3           1 RES     
    3795 CH3         -0.0415    27.3861   -56.7654 CH3           1 RES     
    3796 CH3          0.8939    28.5982   -58.5512 CH3           1 RES     
    3797 CH3         -1.2337    28.7534   -58.0694 CH3           1 RES     
    3798 NL          -0.0211    28.5650   -57.5746 NL            1 RES     
    3799 CH2          0.1282    29.6663   -56.7359 CH2           1 RES     
    3800 CH2          1.5425    29.4167   -56.1801 CH2           1 RES     
    3801 OA           1.8057    31.2243   -52.7280 OA            1 RES     
    3802 P            1.4319    30.0722   -53.7735 P             1 RES     
    3803 OM           2.2291    28.7607   -53.3212 OM            1 RES     
    3804 OM          -0.1610    29.9232   -53.7477 OM            1 RES     
    3805 OA           1.9047    30.5067   -55.2389 OA            1 RES     
    3806 CH2          1.3533    30.7876   -51.3827 CH2           1 RES     
    3807 CH1          1.6970    31.8742   -50.3470 CH1           1 RES     
    3808 OE           0.4617    32.3489   -49.7070 OE            1 RES     
    3809 C            0.9191    31.9378   -48.3389 C             1 RES     
    3810 O            2.0007    31.4046   -48.0969 O             1 RES     
    3811 CH2         -0.2304    32.1267   -47.5529 CH2           1 RES     
    3812 CH2          0.2131    31.5721   -46.1864 CH2           1 RES     
    3813 CH2         -0.9933    31.5372   -45.2298 CH2           1 RES     
    3814 CH2         -0.5498    30.9826   -43.8632 CH2           1 RES     
    3815 CH2         -1.7562    30.9477   -42.9066 CH2           1 RES     
    3816 CH2         -1.3127    30.3931   -41.5401 CH2           1 RES     
    3817 CH2         -2.5191    30.3582   -40.5835 CH2           1 RES     
    3818 CH2         -2.0756    29.8036   -39.2169 CH2           1 RES     
    3819 CH2         -3.2820    29.7688   -38.2603 CH2           1 RES     
    3820 CH2         -2.8385    29.2142   -36.8938 CH2           1 RES     
    3821 CH2         -4.0448    29.1793   -35.9372 CH2           1 RES     
    3822 CH2         -3.6014    28.6247   -34.5707 CH2           1 RES     
    3823 CH2         -4.8077    28.5898   -33.6140 CH2           1 RES     
    3824 CH2         -4.3643    28.0352   -32.2475 CH2           1 RES     
    3825 CH2         -5.5706    28.0003   -31.2909 CH2           1 RES     
    3826 CH2         -5.1272    27.4457   -29.9244 CH2           1 RES     
    3827 CH3         -6.2787    27.4124   -29.0112 CH3           1 RES     
    3828 CH2          2.6362    31.2853   -49.2780 CH2           1 RES     
    3829 OE           3.9130    30.9239   -49.8972 OE            1 RES     
    3830 C            4.6195    30.4382   -48.6664 C             1 RES     
    3831 O            5.7715    30.0075   -48.6486 O             1 RES     
    3832 CH2          3.5975    30.4232   -47.7022 CH2           1 RES     
    3833 CH2          4.3036    29.7942   -46.4867 CH2           1 RES     
    3834 CH2          3.2740    29.5354   -45.3711 CH2           1 RES     
    3835 CH2          3.9802    28.9063   -44.1557 CH2           1 RES     
    3836 CH2          2.9506    28.6475   -43.0401 CH2           1 RES     
    3837 CH2          3.6567    28.0185   -41.8247 CH2           1 RES     
    3838 CH2          2.6271    27.7597   -40.7091 CH2           1 RES     
    3839 CH2          3.3333    27.1307   -39.4937 CH2           1 RES     
    3840 CH2          2.3037    26.8719   -38.3781 CH2           1 RES     
    3841 CH2          3.0099    26.2428   -37.1627 CH2           1 RES     
    3842 CH2          1.9803    25.9840   -36.0471 CH2           1 RES     
    3843 CH2          2.6864    25.3550   -34.8317 CH2           1 RES     
    3844 CH2          1.6568    25.0962   -33.7161 CH2           1 RES     
    3845 CH2          2.3630    24.4672   -32.5006 CH2           1 RES     
    3846 CH2          1.3334    24.2084   -31.3850 CH2           1 RES     
    3847 CH2          2.0395    23.5793   -30.1696 CH2           1 RES     
    3848 CH3          1.0567    23.3323   -29.1047 CH3           1 RES     
    3849 CH3         21.8674    32.8634   -56.7654 CH3           1 RES     
    3850 CH3         22.9558    33.9401   -58.5512 CH3           1 RES     
    3851 CH3         20.8678    34.3771   -58.0694 CH3           1 RES     
    3852 NL          22.0445    34.0290   -57.5746 NL            1 RES     
    3853 CH2         22.3390    35.1007   -56.7359 CH2           1 RES     
    3854 CH2         23.7075    34.6651   -56.1801 CH2           1 RES     
    3855 OA          24.2089    36.4215   -52.7280 OA            1 RES     
    3856 P           23.6851    35.3294   -53.7735 P             1 RES     
    3857 OM          24.3007    33.9235   -53.3212 OM            1 RES     
    3858 OM          22.0866    35.3938   -53.7477 OM            1 RES     
    3859 OA          24.2116    35.6972   -55.2389 OA            1 RES     
    3860 CH2         23.7024    36.0490   -51.3827 CH2           1 RES     
    3861 CH1         24.1877    37.0802   -50.3470 CH1           1 RES     
    3862 OE          23.0265    37.7151   -49.7070 OE            1 RES     
    3863 C           23.4251    37.2468   -48.3389 C             1 RES     
    3864 O           24.4262    36.5743   -48.0969 O             1 RES     
    3865 CH2         22.3111    37.5869   -47.5529 CH2           1 RES     
    3866 CH2         22.6768    36.9782   -46.1864 CH2           1 RES     
    3867 CH2         21.4765    37.1042   -45.2298 CH2           1 RES     
    3868 CH2         21.8422    36.4955   -43.8632 CH2           1 RES     
    3869 CH2         20.6420    36.6215   -42.9066 CH2           1 RES     
    3870 CH2         21.0077    36.0128   -41.5401 CH2           1 RES     
    3871 CH2         19.8074    36.1387   -40.5835 CH2           1 RES     
    3872 CH2         20.1731    35.5301   -39.2169 CH2           1 RES     
    3873 CH2         18.9728    35.6560   -38.2603 CH2           1 RES     
    3874 CH2         19.3385    35.0473   -36.8938 CH2           1 RES     
    3875 CH2         18.1383    35.1733   -35.9372 CH2           1 RES     
    3876 CH2         18.5040    34.5646   -34.5707 CH2           1 RES     
    3877 CH2         17.3037    34.6906   -33.6140 CH2           1 RES     
    3878 CH2         17.6694    34.0819   -32.2475 CH2           1 RES     
    3879 CH2         16.4692    34.2079   -31.2909 CH2           1 RES     
    3880 CH2         16.8349    33.5992   -29.9244 CH2           1 RES     
    3881 CH3         15.6892    33.7194   -29.0112 CH3           1 RES     
    3882 CH2         25.0401    36.3715   -49.2780 CH2           1 RES     
    3883 OE          26.2575    35.8434   -49.8972 OE            1 RES     
    3884 C           26.8931    35.2680   -48.6664 C             1 RES     
    3885 O           27.9776    34.6878   -48.6486 O             1 RES     
    3886 CH2         25.8782    35.3892   -47.7022 CH2           1 RES     
    3887 CH2         26.4943    34.6717   -46.4867 CH2           1 RES     
    3888 CH2         25.4395    34.5523   -45.3711 CH2           1 RES     
    3889 CH2         26.0556    33.8348   -44.1557 CH2           1 RES     
    3890 CH2         25.0007    33.7154   -43.0401 CH2           1 RES     
    3891 CH2         25.6169    32.9979   -41.8247 CH2           1 RES     
    3892 CH2         24.5620    32.8785   -40.7091 CH2           1 RES     
    3893 CH2         25.1782    32.1610   -39.4937 CH2           1 RES     
    3894 CH2         24.1233    32.0416   -38.3781 CH2           1 RES     
    3895 CH2         24.7395    31.3242   -37.1627 CH2           1 RES     
    3896 CH2         23.6846    31.2047   -36.0471 CH2           1 RES     
    3897 CH2         24.3008    30.4873   -34.8317 CH2           1 RES     
    3898 CH2         23.2459    30.3678   -33.7161 CH2           1 RES     
    3899 CH2         23.8620    29.6504   -32.5006 CH2           1 RES     
    3900 CH2         22.8072    29.5309   -31.3850 CH2           1 RES     
    3901 CH2         23.4233    28.8135   -30.1696 CH2           1 RES     
    3902 CH3         22.4164    28.6994   -29.1047 CH3           1 RES     
    3903 CH3         27.3446    16.4317   -56.7654 CH3           1 RES     
    3904 CH3         28.6641    17.2081   -58.5512 CH3           1 RES     
    3905 CH3         26.7474    18.1446   -58.0694 CH3           1 RES     
    3906 NL          27.8026    17.5181   -57.5746 NL            1 RES     
    3907 CH2         28.3513    18.4846   -56.7359 CH2           1 RES     
    3908 CH2         29.5709    17.7262   -56.1801 CH2           1 RES     
    3909 OA          30.4884    19.3057   -52.7280 OA            1 RES     
    3910 P           29.7124    18.3757   -53.7735 P             1 RES     
    3911 OM          29.9638    16.8617   -53.3212 OM            1 RES     
    3912 OM          28.1787    18.8307   -53.7477 OM            1 RES     
    3913 OA          30.3131    18.6029   -55.2389 OA            1 RES     
    3914 CH2         29.9059    19.0689   -51.3827 CH2           1 RES     
    3915 CH1         30.6296    19.9494   -50.3470 CH1           1 RES     
    3916 OE          29.6600    20.8500   -49.7070 OE            1 RES     
    3917 C           29.9314    20.2981   -48.3389 C             1 RES     
    3918 O           30.7365    19.4004   -48.0969 O             1 RES     
    3919 CH2         28.9350    20.9015   -47.5529 CH2           1 RES     
    3920 CH2         29.1400    20.2217   -46.1864 CH2           1 RES     
    3921 CH2         28.0074    20.6386   -45.2298 CH2           1 RES     
    3922 CH2         28.2124    19.9587   -43.8632 CH2           1 RES     
    3923 CH2         27.0799    20.3756   -42.9066 CH2           1 RES     
    3924 CH2         27.2848    19.6958   -41.5401 CH2           1 RES     
    3925 CH2         26.1523    20.1127   -40.5835 CH2           1 RES     
    3926 CH2         26.3573    19.4329   -39.2169 CH2           1 RES     
    3927 CH2         25.2247    19.8498   -38.2603 CH2           1 RES     
    3928 CH2         25.4297    19.1699   -36.8938 CH2           1 RES     
    3929 CH2         24.2972    19.5868   -35.9372 CH2           1 RES     
    3930 CH2         24.5021    18.9070   -34.5707 CH2           1 RES     
    3931 CH2         23.3696    19.3239   -33.6140 CH2           1 RES     
    3932 CH2         23.5746    18.6441   -32.2475 CH2           1 RES     
    3933 CH2         22.4420    19.0610   -31.2909 CH2           1 RES     
    3934 CH2         22.6470    18.3811   -29.9244 CH2           1 RES     
    3935 CH3         21.5660    18.7791   -29.0112 CH3           1 RES     
    3936 CH2         31.2819    19.0530   -49.2780 CH2           1 RES     
    3937 OE          32.3323    18.2420   -49.8972 OE            1 RES     
    3938 C           32.8070    17.5281   -48.6664 C             1 RES     
    3939 O           33.7157    16.6993   -48.6486 O             1 RES     
    3940 CH2         31.8529    17.8949   -47.7022 CH2           1 RES     
    3941 CH2         32.2740    17.0481   -46.4867 CH2           1 RES     
    3942 CH2         31.2221    17.1914   -45.3711 CH2           1 RES     
    3943 CH2         31.6432    16.3446   -44.1557 CH2           1 RES     
    3944 CH2         30.5913    16.4879   -43.0401 CH2           1 RES     
    3945 CH2         31.0123    15.6411   -41.8247 CH2           1 RES     
    3946 CH2         29.9604    15.7844   -40.7091 CH2           1 RES     
    3947 CH2         30.3815    14.9376   -39.4937 CH2           1 RES     
    3948 CH2         29.3296    15.0809   -38.3781 CH2           1 RES     
    3949 CH2         29.7506    14.2341   -37.1627 CH2           1 RES     
    3950 CH2         28.6987    14.3775   -36.0471 CH2           1 RES     
    3951 CH2         29.1198    13.5307   -34.8317 CH2           1 RES     
    3952 CH2         28.0679    13.6740   -33.7161 CH2           1 RES     
    3953 CH2         28.4889    12.8272   -32.5006 CH2           1 RES     
    3954 CH2         27.4370    12.9705   -31.3850 CH2           1 RES     
    3955 CH2         27.8581    12.1237   -30.1696 CH2           1 RES     
    3956 CH3         26.8540    12.2605   -29.1047 CH3           1 RES     
    3957 CH3         -0.0415    16.4317   -56.7654 CH3           1 RES     
    3958 CH3          0.9285    17.6162   -58.5512 CH3           1 RES     
    3959 CH3         -1.1937    17.8329   -58.0694 CH3           1 RES     
    3960 NL           0.0130    17.6095   -57.5746 NL            1 RES     
    3961 CH2          0.1940    18.7060   -56.7359 CH2           1 RES     
    3962 CH2          1.6005    18.4156   -56.1801 CH2           1 RES     
    3963 OA           1.9159    20.2148   -52.7280 OA            1 RES     
    3964 P            1.5089    19.0740   -53.7735 P             1 RES     
    3965 OM           2.2679    17.7400   -53.3212 OM            1 RES     
    3966 OM          -0.0876    18.9712   -53.7477 OM            1 RES     
    3967 OA           1.9942    19.4947   -55.2389 OA            1 RES     
    3968 CH2          1.4510    19.7914   -51.3827 CH2           1 RES     
    3969 CH1          1.8260    20.8676   -50.3470 CH1           1 RES     
    3970 OE           0.6050    21.3779   -49.7070 OE            1 RES     
    3971 C            1.0503    20.9537   -48.3389 C             1 RES     
    3972 O            2.1160    20.3894   -48.0969 O             1 RES     
    3973 CH2         -0.0932    21.1757   -47.5529 CH2           1 RES     
    3974 CH2          0.3340    20.6085   -46.1864 CH2           1 RES     
    3975 CH2         -0.8728    20.6085   -45.2298 CH2           1 RES     
    3976 CH2         -0.4456    20.0414   -43.8632 CH2           1 RES     
    3977 CH2         -1.6525    20.0414   -42.9066 CH2           1 RES     
    3978 CH2         -1.2252    19.4742   -41.5401 CH2           1 RES     
    3979 CH2         -2.4321    19.4742   -40.5835 CH2           1 RES     
    3980 CH2         -2.0049    18.9070   -39.2169 CH2           1 RES     
    3981 CH2         -3.2117    18.9070   -38.2603 CH2           1 RES     
    3982 CH2         -2.7845    18.3398   -36.8938 CH2           1 RES     
    3983 CH2         -3.9913    18.3398   -35.9372 CH2           1 RES     
    3984 CH2         -3.5641    17.7726   -34.5707 CH2           1 RES     
    3985 CH2         -4.7710    17.7726   -33.6140 CH2           1 RES     
    3986 CH2         -4.3437    17.2055   -32.2475 CH2           1 RES     
    3987 CH2         -5.5506    17.2055   -31.2909 CH2           1 RES     
    3988 CH2         -5.1234    16.6383   -29.9244 CH2           1 RES     
    3989 CH3         -6.2753    16.6383   -29.0112 CH3           1 RES     
    3990 CH2          2.7478    20.2517   -49.2780 CH2           1 RES     
    3991 OE           4.0137    19.8536   -49.8972 OE            1 RES     
    3992 C            4.7058    19.3477   -48.6664 C             1 RES     
    3993 O            5.8449    18.8838   -48.6486 O             1 RES     
    3994 CH2          3.6838    19.3623   -47.7022 CH2           1 RES     
    3995 CH2          4.3714    18.7131   -46.4867 CH2           1 RES     
    3996 CH2          3.3348    18.4842   -45.3711 CH2           1 RES     
    3997 CH2          4.0225    17.8350   -44.1557 CH2           1 RES     
    3998 CH2          2.9858    17.6061   -43.0401 CH2           1 RES     
    3999 CH2          3.6735    16.9569   -41.8247 CH2           1 RES     
    4000 CH2          2.6368    16.7279   -40.7091 CH2           1 RES     
    4001 CH2          3.3245    16.0787   -39.4937 CH2           1 RES     
    4002 CH2          2.2879    15.8498   -38.3781 CH2           1 RES     
    4003 CH2          2.9755    15.2006   -37.1627 CH2           1 RES     
    4004 CH2          1.9389    14.9717   -36.0471 CH2           1 RES     
    4005 CH2          2.6265    14.3225   -34.8317 CH2           1 RES     
    4006 CH2          1.5899    14.0936   -33.7161 CH2           1 RES     
    4007 CH2          2.2776    13.4444   -32.5006 CH2           1 RES     
    4008 CH2          1.2409    13.2155   -31.3850 CH2           1 RES     
    4009 CH2          1.9286    12.5663   -30.1696 CH2           1 RES     
    4010 CH3          0.9391    12.3478   -29.1047 CH3           1 RES     
    4011 CH3         27.3446    32.8634   -56.7654 CH3           1 RES     
    4012 CH3         28.3876    33.9841   -58.5512 CH3           1 RES     
    4013 CH3         26.2833    34.3346   -58.0694 CH3           1 RES     
    4014 NL          27.4734    34.0354   -57.5746 NL            1 RES     
    4015 CH2         27.7234    35.1182   -56.7359 CH2           1 RES     
    4016 CH2         29.1088    34.7395   -56.1801 CH2           1 RES     
    4017 OA          29.5373    36.5151   -52.7280 OA            1 RES     
    4018 P           29.0590    35.4024   -53.7735 P             1 RES     
    4019 OM          29.7321    34.0231   -53.3212 OM            1 RES     
    4020 OM          27.4592    35.4007   -53.7477 OM            1 RES     
    4021 OA          29.5699    35.7916   -55.2389 OA            1 RES     
    4022 CH2         29.0466    36.1220   -51.3827 CH2           1 RES     
    4023 CH1         29.4889    37.1724   -50.3470 CH1           1 RES     
    4024 OE          28.3025    37.7588   -49.7070 OE            1 RES     
    4025 C           28.7201    37.3073   -48.3389 C             1 RES     
    4026 O           29.7480    36.6767   -48.0969 O             1 RES     
    4027 CH2         27.5929    37.6012   -47.5529 CH2           1 RES     
    4028 CH2         27.9834    37.0081   -46.1864 CH2           1 RES     
    4029 CH2         26.7790    37.0844   -45.2298 CH2           1 RES     
    4030 CH2         27.1695    36.4914   -43.8632 CH2           1 RES     
    4031 CH2         25.9651    36.5677   -42.9066 CH2           1 RES     
    4032 CH2         26.3556    35.9746   -41.5401 CH2           1 RES     
    4033 CH2         25.1512    36.0509   -40.5835 CH2           1 RES     
    4034 CH2         25.5417    35.4578   -39.2169 CH2           1 RES     
    4035 CH2         24.3373    35.5342   -38.2603 CH2           1 RES     
    4036 CH2         24.7278    34.9411   -36.8938 CH2           1 RES     
    4037 CH2         23.5233    35.0174   -35.9372 CH2           1 RES     
    4038 CH2         23.9138    34.4243   -34.5707 CH2           1 RES     
    4039 CH2         22.7094    34.5006   -33.6140 CH2           1 RES     
    4040 CH2         23.0999    33.9076   -32.2475 CH2           1 RES     
    4041 CH2         21.8955    33.9839   -31.2909 CH2           1 RES     
    4042 CH2         22.2860    33.3908   -29.9244 CH2           1 RES     
    4043 CH3         21.1363    33.4637   -29.0112 CH3           1 RES     
    4044 CH2         30.3698    36.4994   -49.2780 CH2           1 RES     
    4045 OE          31.6080    36.0221   -49.8972 OE            1 RES     
    4046 C           32.2668    35.4734   -48.6664 C             1 RES     
    4047 O           33.3743    34.9385   -48.6486 O             1 RES     
    4048 CH2         31.2477    35.5526   -47.7022 CH2           1 RES     
    4049 CH2         31.8930    34.8612   -46.4867 CH2           1 RES     
    4050 CH2         30.8439    34.6983   -45.3711 CH2           1 RES     
    4051 CH2         31.4892    34.0069   -44.1557 CH2           1 RES     
    4052 CH2         30.4401    33.8440   -43.0401 CH2           1 RES     
    4053 CH2         31.0854    33.1526   -41.8247 CH2           1 RES     
    4054 CH2         30.0363    32.9897   -40.7091 CH2           1 RES     
    4055 CH2         30.6816    32.2983   -39.4937 CH2           1 RES     
    4056 CH2         29.6325    32.1354   -38.3781 CH2           1 RES     
    4057 CH2         30.2778    31.4440   -37.1627 CH2           1 RES     
    4058 CH2         29.2287    31.2811   -36.0471 CH2           1 RES     
    4059 CH2         29.8740    30.5897   -34.8317 CH2           1 RES     
    4060 CH2         28.8249    30.4268   -33.7161 CH2           1 RES     
    4061 CH2         29.4702    29.7354   -32.5006 CH2           1 RES     
    4062 CH2         28.4212    29.5725   -31.3850 CH2           1 RES     
    4063 CH2         29.0664    28.8811   -30.1696 CH2           1 RES     
    4064 CH3         28.0650    28.7256   -29.1047 CH3           1 RES     
    4065 CH3          9.6400    22.5058   -35.6031 CH3           1 RES     
    4066 CH2         15.6092    21.8749   -52.0944 CH2           1 RES     
    4067 CH2         15.2686    22.8017   -50.9126 CH2           1 RES     
    4068 CH2         14.7531    21.9595   -49.7308 CH2           1 RES     
    4069 CH2         14.4125    22.8863   -48.5490 CH2           1 RES     
    4070 CH2         13.8970    22.0442   -47.3672 CH2           1 RES     
    4071 CH2         13.5564    22.9710   -46.1854 CH2           1 RES     
    4072 CH2         13.0409    22.1288   -45.0037 CH2           1 RES     
    4073 CH2         12.7003    23.0557   -43.8219 CH2           1 RES     
    4074 CH2         12.1848    22.2135   -42.6401 CH2           1 RES     
    4075 CH2         11.8442    23.1403   -41.4583 CH2           1 RES     
    4076 CH2         11.3287    22.2982   -40.2765 CH2           1 RES     
    4077 CH2         10.9881    23.2250   -39.0947 CH2           1 RES     
    4078 CH2         10.4726    22.3828   -37.9129 CH2           1 RES     
    4079 CH2         10.1321    23.3097   -36.7312 CH2           1 RES     
    4080 O           16.1931    23.8753   -53.2024 O             1 RES     
    4081 C           16.0808    22.6504   -53.1993 C             1 RES     
    4082 OA          16.3901    21.9089   -54.2654 OA            1 RES     
    4083 H           16.6894    22.4993   -54.9607 H             1 RES     
    4084 CH3         31.7511    -1.7450   -35.6031 CH3           1 RES     
    4085 CH2         37.5767    -0.2988   -52.0944 CH2           1 RES     
    4086 CH2         36.9400     0.4559   -50.9126 CH2           1 RES     
    4087 CH2         36.7432    -0.5117   -49.7308 CH2           1 RES     
    4088 CH2         36.1065     0.2431   -48.5490 CH2           1 RES     
    4089 CH2         35.9097    -0.7245   -47.3672 CH2           1 RES     
    4090 CH2         35.2730     0.0302   -46.1854 CH2           1 RES     
    4091 CH2         35.0762    -0.9374   -45.0037 CH2           1 RES     
    4092 CH2         34.4395    -0.1827   -43.8219 CH2           1 RES     
    4093 CH2         34.2426    -1.1503   -42.6401 CH2           1 RES     
    4094 CH2         33.6059    -0.3956   -41.4583 CH2           1 RES     
    4095 CH2         33.4091    -1.3632   -40.2765 CH2           1 RES     
    4096 CH2         32.7724    -0.6085   -39.0947 CH2           1 RES     
    4097 CH2         32.5756    -1.5761   -37.9129 CH2           1 RES     
    4098 CH2         31.9389    -0.8214   -36.7312 CH2           1 RES     
    4099 O           37.4421     1.7808   -53.2024 O             1 RES     
    4100 C           37.7550     0.5912   -53.1993 C             1 RES     
    4101 OA          38.2990     0.0000   -54.2654 OA            1 RES     
    4102 H           38.3786     0.6572   -54.9607 H             1 RES     
    4103 CH3          9.6850     6.4579   -35.6031 CH3           1 RES     
    4104 CH2         15.6085     5.4878   -52.0944 CH2           1 RES     
    4105 CH2         15.3213     6.4325   -50.9126 CH2           1 RES     
    4106 CH2         14.7586     5.6211   -49.7308 CH2           1 RES     
    4107 CH2         14.4714     6.5658   -48.5490 CH2           1 RES     
    4108 CH2         13.9088     5.7544   -47.3672 CH2           1 RES     
    4109 CH2         13.6216     6.6991   -46.1854 CH2           1 RES     
    4110 CH2         13.0589     5.8877   -45.0037 CH2           1 RES     
    4111 CH2         12.7717     6.8325   -43.8219 CH2           1 RES     
    4112 CH2         12.2090     6.0210   -42.6401 CH2           1 RES     
    4113 CH2         11.9218     6.9658   -41.4583 CH2           1 RES     
    4114 CH2         11.3591     6.1544   -40.2765 CH2           1 RES     
    4115 CH2         11.0719     7.0991   -39.0947 CH2           1 RES     
    4116 CH2         10.5093     6.2877   -37.9129 CH2           1 RES     
    4117 CH2         10.2221     7.2324   -36.7312 CH2           1 RES     
    4118 O           16.3055     7.4516   -53.2024 O             1 RES     
    4119 C           16.1235     6.2352   -53.1993 C             1 RES     
    4120 OA          16.3901     5.4772   -54.2654 OA            1 RES     
    4121 H           16.7226     6.0496   -54.9607 H             1 RES     
    4122 CH3         26.0556    -0.3727   -35.6031 CH3           1 RES     
    4123 CH2         32.0537    -0.1452   -52.0944 CH2           1 RES     
    4124 CH2         31.5843     0.7236   -50.9126 CH2           1 RES     
    4125 CH2         31.1943    -0.1836   -49.7308 CH2           1 RES     
    4126 CH2         30.7249     0.6852   -48.5490 CH2           1 RES     
    4127 CH2         30.3349    -0.2220   -47.3672 CH2           1 RES     
    4128 CH2         29.8655     0.6467   -46.1854 CH2           1 RES     
    4129 CH2         29.4755    -0.2604   -45.0037 CH2           1 RES     
    4130 CH2         29.0061     0.6083   -43.8219 CH2           1 RES     
    4131 CH2         28.6161    -0.2988   -42.6401 CH2           1 RES     
    4132 CH2         28.1467     0.5699   -41.4583 CH2           1 RES     
    4133 CH2         27.7567    -0.3372   -40.2765 CH2           1 RES     
    4134 CH2         27.2873     0.5315   -39.0947 CH2           1 RES     
    4135 CH2         26.8973    -0.3756   -37.9129 CH2           1 RES     
    4136 CH2         26.4279     0.4931   -36.7312 CH2           1 RES     
    4137 O           32.3461     1.9181   -53.2024 O             1 RES     
    4138 C           32.4098     0.6898   -53.1993 C             1 RES     
    4139 OA          32.8218     0.0000   -54.2654 OA            1 RES     
    4140 H           33.0338     0.6271   -54.9607 H             1 RES     
    4141 CH3         -1.3239    -0.4781   -35.6031 CH3           1 RES     
    4142 CH2          4.6699    -0.1571   -52.0944 CH2           1 RES     
    4143 CH2          4.1871     0.7042   -50.9126 CH2           1 RES     
    4144 CH2          3.8112    -0.2089   -49.7308 CH2           1 RES     
    4145 CH2          3.3284     0.6524   -48.5490 CH2           1 RES     
    4146 CH2          2.9525    -0.2607   -47.3672 CH2           1 RES     
    4147 CH2          2.4697     0.6006   -46.1854 CH2           1 RES     
    4148 CH2          2.0938    -0.3125   -45.0037 CH2           1 RES     
    4149 CH2          1.6110     0.5488   -43.8219 CH2           1 RES     
    4150 CH2          1.2351    -0.3643   -42.6401 CH2           1 RES     
    4151 CH2          0.7523     0.4970   -41.4583 CH2           1 RES     
    4152 CH2          0.3764    -0.4161   -40.2765 CH2           1 RES     
    4153 CH2         -0.1065     0.4452   -39.0947 CH2           1 RES     
    4154 CH2         -0.4823    -0.4678   -37.9129 CH2           1 RES     
    4155 CH2         -0.9652     0.3935   -36.7312 CH2           1 RES     
    4156 O            4.9302     1.9105   -53.2024 O             1 RES     
    4157 C            5.0129     0.6833   -53.1993 C             1 RES     
    4158 OA           5.4357     0.0000   -54.2654 OA            1 RES     
    4159 H            5.6378     0.6303   -54.9607 H             1 RES     
    4160 CH3         15.1004     5.8374   -35.6031 CH3           1 RES     
    4161 CH2         21.0881     5.4159   -52.0944 CH2           1 RES     
    4162 CH2         20.7153     6.3302   -50.9126 CH2           1 RES     
    4163 CH2         20.2295     5.4705   -49.7308 CH2           1 RES     
    4164 CH2         19.8567     6.3848   -48.5490 CH2           1 RES     
    4165 CH2         19.3710     5.5251   -47.3672 CH2           1 RES     
    4166 CH2         18.9982     6.4395   -46.1854 CH2           1 RES     
    4167 CH2         18.5125     5.5798   -45.0037 CH2           1 RES     
    4168 CH2         18.1397     6.4941   -43.8219 CH2           1 RES     
    4169 CH2         17.6540     5.6344   -42.6401 CH2           1 RES     
    4170 CH2         17.2811     6.5488   -41.4583 CH2           1 RES     
    4171 CH2         16.7954     5.6891   -40.2765 CH2           1 RES     
    4172 CH2         16.4226     6.6034   -39.0947 CH2           1 RES     
    4173 CH2         15.9369     5.7437   -37.9129 CH2           1 RES     
    4174 CH2         15.5641     6.6580   -36.7312 CH2           1 RES     
    4175 O           21.6016     7.4355   -53.2024 O             1 RES     
    4176 C           21.5322     6.2075   -53.1993 C             1 RES     
    4177 OA          21.8674     5.4772   -54.2654 OA            1 RES     
    4178 H           22.1458     6.0778   -54.9607 H             1 RES     
    4179 CH3         -6.7728    22.6911   -35.6031 CH3           1 RES     
    4180 CH2         -0.8231    21.8963   -52.0944 CH2           1 RES     
    4181 CH2         -1.1381    22.8322   -50.9126 CH2           1 RES     
    4182 CH2         -1.6766    22.0045   -49.7308 CH2           1 RES     
    4183 CH2         -1.9916    22.9403   -48.5490 CH2           1 RES     
    4184 CH2         -2.5300    22.1127   -47.3672 CH2           1 RES     
    4185 CH2         -2.8450    23.0485   -46.1854 CH2           1 RES     
    4186 CH2         -3.3835    22.2208   -45.0037 CH2           1 RES     
    4187 CH2         -3.6984    23.1566   -43.8219 CH2           1 RES     
    4188 CH2         -4.2369    22.3290   -42.6401 CH2           1 RES     
    4189 CH2         -4.5519    23.2648   -41.4583 CH2           1 RES     
    4190 CH2         -5.0903    22.4371   -40.2765 CH2           1 RES     
    4191 CH2         -5.4053    23.3730   -39.0947 CH2           1 RES     
    4192 CH2         -5.9438    22.5453   -37.9129 CH2           1 RES     
    4193 CH2         -6.2588    23.4811   -36.7312 CH2           1 RES     
    4194 O           -0.1845    23.8799   -53.2024 O             1 RES     
    4195 C           -0.3304    22.6586   -53.1993 C             1 RES     
    4196 OA          -0.0415    21.9089   -54.2654 OA            1 RES     
    4197 H            0.2739    22.4909   -54.9607 H             1 RES     
    4198 CH3          4.1454    32.5140   -35.6031 CH3           1 RES     
    4199 CH2         10.1443    32.7208   -52.0944 CH2           1 RES     
    4200 CH2          9.6779    33.5912   -50.9126 CH2           1 RES     
    4201 CH2          9.2848    32.6854   -49.7308 CH2           1 RES     
    4202 CH2          8.8184    33.5557   -48.5490 CH2           1 RES     
    4203 CH2          8.4252    32.6500   -47.3672 CH2           1 RES     
    4204 CH2          7.9589    33.5203   -46.1854 CH2           1 RES     
    4205 CH2          7.5657    32.6146   -45.0037 CH2           1 RES     
    4206 CH2          7.0993    33.4849   -43.8219 CH2           1 RES     
    4207 CH2          6.7062    32.5791   -42.6401 CH2           1 RES     
    4208 CH2          6.2398    33.4495   -41.4583 CH2           1 RES     
    4209 CH2          5.8466    32.5437   -40.2765 CH2           1 RES     
    4210 CH2          5.3802    33.4140   -39.0947 CH2           1 RES     
    4211 CH2          4.9871    32.5083   -37.9129 CH2           1 RES     
    4212 CH2          4.5207    33.3786   -36.7312 CH2           1 RES     
    4213 O           10.4439    34.7831   -53.2024 O             1 RES     
    4214 C           10.5033    33.5545   -53.1993 C             1 RES     
    4215 OA          10.9129    32.8634   -54.2654 OA            1 RES     
    4216 H           11.1270    33.4897   -54.9607 H             1 RES     
    4217 CH3          4.1364    21.9145   -35.6031 CH3           1 RES     
    4218 CH2         10.1379    21.8068   -52.0944 CH2           1 RES     
    4219 CH2          9.7178    22.7004   -50.9126 CH2           1 RES     
    4220 CH2          9.2777    21.8165   -49.7308 CH2           1 RES     
    4221 CH2          8.8575    22.7101   -48.5490 CH2           1 RES     
    4222 CH2          8.4175    21.8261   -47.3672 CH2           1 RES     
    4223 CH2          7.9973    22.7197   -46.1854 CH2           1 RES     
    4224 CH2          7.5573    21.8358   -45.0037 CH2           1 RES     
    4225 CH2          7.1371    22.7293   -43.8219 CH2           1 RES     
    4226 CH2          6.6970    21.8454   -42.6401 CH2           1 RES     
    4227 CH2          6.2769    22.7390   -41.4583 CH2           1 RES     
    4228 CH2          5.8368    21.8550   -40.2765 CH2           1 RES     
    4229 CH2          5.4167    22.7486   -39.0947 CH2           1 RES     
    4230 CH2          4.9766    21.8647   -37.9129 CH2           1 RES     
    4231 CH2          4.5565    22.7582   -36.7312 CH2           1 RES     
    4232 O           10.5450    23.8506   -53.2024 O             1 RES     
    4233 C           10.5400    22.6206   -53.1993 C             1 RES     
    4234 OA          10.9129    21.9089   -54.2654 OA            1 RES     
    4235 H           11.1595    22.5232   -54.9607 H             1 RES     
    4236 CH3         31.5541     4.8238   -35.6031 CH3           1 RES     
    4237 CH2         37.5376     5.3003   -52.0944 CH2           1 RES     
    4238 CH2         37.0326     6.1488   -50.9126 CH2           1 RES     
    4239 CH2         36.6806     5.2262   -49.7308 CH2           1 RES     
    4240 CH2         36.1755     6.0747   -48.5490 CH2           1 RES     
    4241 CH2         35.8235     5.1522   -47.3672 CH2           1 RES     
    4242 CH2         35.3184     6.0006   -46.1854 CH2           1 RES     
    4243 CH2         34.9664     5.0781   -45.0037 CH2           1 RES     
    4244 CH2         34.4614     5.9266   -43.8219 CH2           1 RES     
    4245 CH2         34.1093     5.0040   -42.6401 CH2           1 RES     
    4246 CH2         33.6043     5.8525   -41.4583 CH2           1 RES     
    4247 CH2         33.2523     4.9300   -40.2765 CH2           1 RES     
    4248 CH2         32.7472     5.7785   -39.0947 CH2           1 RES     
    4249 CH2         32.3952     4.8559   -37.9129 CH2           1 RES     
    4250 CH2         31.8901     5.7044   -36.7312 CH2           1 RES     
    4251 O           37.7441     7.3739   -53.2024 O             1 RES     
    4252 C           37.8587     6.1493   -53.1993 C             1 RES     
    4253 OA          38.2990     5.4772   -54.2654 OA            1 RES     
    4254 H           38.4848     6.1126   -54.9607 H             1 RES     
    4255 CH3         -6.7151    31.6867   -35.6031 CH3           1 RES     
    4256 CH2         -0.7869    32.6277   -52.0944 CH2           1 RES     
    4257 CH2         -1.3564    33.4342   -50.9126 CH2           1 RES     
    4258 CH2         -1.6356    32.4871   -49.7308 CH2           1 RES     
    4259 CH2         -2.2052    33.2937   -48.5490 CH2           1 RES     
    4260 CH2         -2.4843    32.3465   -47.3672 CH2           1 RES     
    4261 CH2         -3.0539    33.1531   -46.1854 CH2           1 RES     
    4262 CH2         -3.3330    32.2059   -45.0037 CH2           1 RES     
    4263 CH2         -3.9026    33.0125   -43.8219 CH2           1 RES     
    4264 CH2         -4.1817    32.0654   -42.6401 CH2           1 RES     
    4265 CH2         -4.7513    32.8719   -41.4583 CH2           1 RES     
    4266 CH2         -5.0304    31.9248   -40.2765 CH2           1 RES     
    4267 CH2         -5.6000    32.7313   -39.0947 CH2           1 RES     
    4268 CH2         -5.8791    31.7842   -37.9129 CH2           1 RES     
    4269 CH2         -6.4487    32.5908   -36.7312 CH2           1 RES     
    4270 O           -0.7425    34.7111   -53.2024 O             1 RES     
    4271 C           -0.5329    33.4991   -53.1993 C             1 RES     
    4272 OA          -0.0415    32.8634   -54.2654 OA            1 RES     
    4273 H            0.0941    33.5113   -54.9607 H             1 RES     
    4274 CH3         -1.2435     4.3331   -35.6031 CH3           1 RES     
    4275 CH2          4.6892     5.2452   -52.0944 CH2           1 RES     
    4276 CH2          4.1236     6.0545   -50.9126 CH2           1 RES     
    4277 CH2          3.8398     5.1087   -49.7308 CH2           1 RES     
    4278 CH2          3.2742     5.9181   -48.5490 CH2           1 RES     
    4279 CH2          2.9905     4.9723   -47.3672 CH2           1 RES     
    4280 CH2          2.4248     5.7817   -46.1854 CH2           1 RES     
    4281 CH2          2.1411     4.8359   -45.0037 CH2           1 RES     
    4282 CH2          1.5754     5.6452   -43.8219 CH2           1 RES     
    4283 CH2          1.2917     4.6995   -42.6401 CH2           1 RES     
    4284 CH2          0.7261     5.5088   -41.4583 CH2           1 RES     
    4285 CH2          0.4423     4.5630   -40.2765 CH2           1 RES     
    4286 CH2         -0.1233     5.3724   -39.0947 CH2           1 RES     
    4287 CH2         -0.4071     4.4266   -37.9129 CH2           1 RES     
    4288 CH2         -0.9727     5.2359   -36.7312 CH2           1 RES     
    4289 O            4.7438     7.3284   -53.2024 O             1 RES     
    4290 C            4.9475     6.1153   -53.1993 C             1 RES     
    4291 OA           5.4357     5.4772   -54.2654 OA            1 RES     
    4292 H            5.5745     6.1245   -54.9607 H             1 RES     
    4293 CH3          9.6205    38.0361   -35.6031 CH3           1 RES     
    4294 CH2         15.6206    38.2032   -52.0944 CH2           1 RES     
    4295 CH2         15.1600    39.0766   -50.9126 CH2           1 RES     
    4296 CH2         14.7609    38.1734   -49.7308 CH2           1 RES     
    4297 CH2         14.3003    39.0468   -48.5490 CH2           1 RES     
    4298 CH2         13.9011    38.1437   -47.3672 CH2           1 RES     
    4299 CH2         13.4405    39.0171   -46.1854 CH2           1 RES     
    4300 CH2         13.0414    38.1140   -45.0037 CH2           1 RES     
    4301 CH2         12.5808    38.9874   -43.8219 CH2           1 RES     
    4302 CH2         12.1816    38.0842   -42.6401 CH2           1 RES     
    4303 CH2         11.7210    38.9577   -41.4583 CH2           1 RES     
    4304 CH2         11.3218    38.0545   -40.2765 CH2           1 RES     
    4305 CH2         10.8612    38.9279   -39.0947 CH2           1 RES     
    4306 CH2         10.4621    38.0248   -37.9129 CH2           1 RES     
    4307 CH2         10.0015    38.8982   -36.7312 CH2           1 RES     
    4308 O           15.9338    40.2634   -53.2024 O             1 RES     
    4309 C           15.9851    39.0345   -53.1993 C             1 RES     
    4310 OA          16.3901    38.3406   -54.2654 OA            1 RES     
    4311 H           16.6084    38.9655   -54.9607 H             1 RES     
    4312 CH3         15.1194    -0.6217   -35.6031 CH3           1 RES     
    4313 CH2         21.1051    -0.1734   -52.0944 CH2           1 RES     
    4314 CH2         20.6041     0.6775   -50.9126 CH2           1 RES     
    4315 CH2         20.2477    -0.2434   -49.7308 CH2           1 RES     
    4316 CH2         19.7467     0.6074   -48.5490 CH2           1 RES     
    4317 CH2         19.3903    -0.3134   -47.3672 CH2           1 RES     
    4318 CH2         18.8892     0.5374   -46.1854 CH2           1 RES     
    4319 CH2         18.5329    -0.3835   -45.0037 CH2           1 RES     
    4320 CH2         18.0318     0.4674   -43.8219 CH2           1 RES     
    4321 CH2         17.6755    -0.4535   -42.6401 CH2           1 RES     
    4322 CH2         17.1744     0.3974   -41.4583 CH2           1 RES     
    4323 CH2         16.8181    -0.5235   -40.2765 CH2           1 RES     
    4324 CH2         16.3170     0.3273   -39.0947 CH2           1 RES     
    4325 CH2         15.9607    -0.5935   -37.9129 CH2           1 RES     
    4326 CH2         15.4596     0.2573   -36.7312 CH2           1 RES     
    4327 O           21.3213     1.8993   -53.2024 O             1 RES     
    4328 C           21.4302     0.6741   -53.1993 C             1 RES     
    4329 OA          21.8674     0.0000   -54.2654 OA            1 RES     
    4330 H           22.0561     0.6345   -54.9607 H             1 RES     
    4331 CH3          9.6154    16.5884   -35.6031 CH3           1 RES     
    4332 CH2         15.6130    16.3469   -52.0944 CH2           1 RES     
    4333 CH2         15.2129    17.2496   -50.9126 CH2           1 RES     
    4334 CH2         14.7533    16.3758   -49.7308 CH2           1 RES     
    4335 CH2         14.3531    17.2785   -48.5490 CH2           1 RES     
    4336 CH2         13.8935    16.4046   -47.3672 CH2           1 RES     
    4337 CH2         13.4934    17.3073   -46.1854 CH2           1 RES     
    4338 CH2         13.0337    16.4334   -45.0037 CH2           1 RES     
    4339 CH2         12.6336    17.3361   -43.8219 CH2           1 RES     
    4340 CH2         12.1739    16.4622   -42.6401 CH2           1 RES     
    4341 CH2         11.7738    17.3649   -41.4583 CH2           1 RES     
    4342 CH2         11.3141    16.4910   -40.2765 CH2           1 RES     
    4343 CH2         10.9140    17.3937   -39.0947 CH2           1 RES     
    4344 CH2         10.4543    16.5198   -37.9129 CH2           1 RES     
    4345 CH2         10.0542    17.4226   -36.7312 CH2           1 RES     
    4346 O           16.0657    18.3811   -53.2024 O             1 RES     
    4347 C           16.0332    17.1515   -53.1993 C             1 RES     
    4348 OA          16.3901    16.4317   -54.2654 OA            1 RES     
    4349 H           16.6504    17.0403   -54.9607 H             1 RES     
    4350 CH3         31.5961    26.3906   -35.6031 CH3           1 RES     
    4351 CH2         37.5476    27.1707   -52.0944 CH2           1 RES     
    4352 CH2         37.0001    27.9924   -50.9126 CH2           1 RES     
    4353 CH2         36.6954    27.0532   -49.7308 CH2           1 RES     
    4354 CH2         36.1479    27.8749   -48.5490 CH2           1 RES     
    4355 CH2         35.8432    26.9356   -47.3672 CH2           1 RES     
    4356 CH2         35.2957    27.7573   -46.1854 CH2           1 RES     
    4357 CH2         34.9910    26.8181   -45.0037 CH2           1 RES     
    4358 CH2         34.4435    27.6398   -43.8219 CH2           1 RES     
    4359 CH2         34.1388    26.7005   -42.6401 CH2           1 RES     
    4360 CH2         33.5913    27.5222   -41.4583 CH2           1 RES     
    4361 CH2         33.2866    26.5830   -40.2765 CH2           1 RES     
    4362 CH2         32.7391    27.4047   -39.0947 CH2           1 RES     
    4363 CH2         32.4344    26.4655   -37.9129 CH2           1 RES     
    4364 CH2         31.8869    27.2872   -36.7312 CH2           1 RES     
    4365 O           37.6484    29.2522   -53.2024 O             1 RES     
    4366 C           37.8251    28.0349   -53.1993 C             1 RES     
    4367 OA          38.2990    27.3861   -54.2654 OA            1 RES     
    4368 H           38.4522    28.0301   -54.9607 H             1 RES     
    4369 CH3          4.1731     4.7732   -35.6031 CH3           1 RES     
    4370 CH2         10.1529     5.2946   -52.0944 CH2           1 RES     
    4371 CH2          9.6414     6.1392   -50.9126 CH2           1 RES     
    4372 CH2          9.2964     5.2141   -49.7308 CH2           1 RES     
    4373 CH2          8.7850     6.0588   -48.5490 CH2           1 RES     
    4374 CH2          8.4399     5.1336   -47.3672 CH2           1 RES     
    4375 CH2          7.9285     5.9783   -46.1854 CH2           1 RES     
    4376 CH2          7.5834     5.0531   -45.0037 CH2           1 RES     
    4377 CH2          7.0720     5.8978   -43.8219 CH2           1 RES     
    4378 CH2          6.7269     4.9726   -42.6401 CH2           1 RES     
    4379 CH2          6.2155     5.8173   -41.4583 CH2           1 RES     
    4380 CH2          5.8704     4.8922   -40.2765 CH2           1 RES     
    4381 CH2          5.3590     5.7368   -39.0947 CH2           1 RES     
    4382 CH2          5.0139     4.8117   -37.9129 CH2           1 RES     
    4383 CH2          4.5025     5.6563   -36.7312 CH2           1 RES     
    4384 O           10.3438     7.3697   -53.2024 O             1 RES     
    4385 C           10.4675     6.1460   -53.1993 C             1 RES     
    4386 OA          10.9129     5.4772   -54.2654 OA            1 RES     
    4387 H           11.0939     6.1140   -54.9607 H             1 RES     
    4388 CH3         31.6089    12.0328   -35.6031 CH3           1 RES     
    4389 CH2         37.5177    10.9764   -52.0944 CH2           1 RES     
    4390 CH2         37.2443    11.9252   -50.9126 CH2           1 RES     
    4391 CH2         36.6698    11.1221   -49.7308 CH2           1 RES     
    4392 CH2         36.3964    12.0709   -48.5490 CH2           1 RES     
    4393 CH2         35.8220    11.2678   -47.3672 CH2           1 RES     
    4394 CH2         35.5486    12.2166   -46.1854 CH2           1 RES     
    4395 CH2         34.9741    11.4135   -45.0037 CH2           1 RES     
    4396 CH2         34.7007    12.3623   -43.8219 CH2           1 RES     
    4397 CH2         34.1263    11.5592   -42.6401 CH2           1 RES     
    4398 CH2         33.8529    12.5080   -41.4583 CH2           1 RES     
    4399 CH2         33.2785    11.7049   -40.2765 CH2           1 RES     
    4400 CH2         33.0051    12.6537   -39.0947 CH2           1 RES     
    4401 CH2         32.4306    11.8506   -37.9129 CH2           1 RES     
    4402 CH2         32.1572    12.7994   -36.7312 CH2           1 RES     
    4403 O           38.2432    12.9299   -53.2024 O             1 RES     
    4404 C           38.0435    11.7162   -53.1993 C             1 RES     
    4405 OA          38.2990    10.9545   -54.2654 OA            1 RES     
    4406 H           38.6398    11.5220   -54.9607 H             1 RES     
    4407 CH3          9.6282    11.3978   -35.6031 CH3           1 RES     
    4408 CH2         15.6102    10.9027   -52.0944 CH2           1 RES     
    4409 CH2         15.2486    11.8215   -50.9126 CH2           1 RES     
    4410 CH2         14.7524    10.9679   -49.7308 CH2           1 RES     
    4411 CH2         14.3908    11.8867   -48.5490 CH2           1 RES     
    4412 CH2         13.8946    11.0331   -47.3672 CH2           1 RES     
    4413 CH2         13.5330    11.9519   -46.1854 CH2           1 RES     
    4414 CH2         13.0368    11.0982   -45.0037 CH2           1 RES     
    4415 CH2         12.6752    12.0171   -43.8219 CH2           1 RES     
    4416 CH2         12.1790    11.1634   -42.6401 CH2           1 RES     
    4417 CH2         11.8174    12.0823   -41.4583 CH2           1 RES     
    4418 CH2         11.3212    11.2286   -40.2765 CH2           1 RES     
    4419 CH2         10.9596    12.1475   -39.0947 CH2           1 RES     
    4420 CH2         10.4634    11.2938   -37.9129 CH2           1 RES     
    4421 CH2         10.1018    12.2127   -36.7312 CH2           1 RES     
    4422 O           16.1485    12.9158   -53.2024 O             1 RES     
    4423 C           16.0640    11.6887   -53.1993 C             1 RES     
    4424 OA          16.3901    10.9545   -54.2654 OA            1 RES     
    4425 H           16.6759    11.5515   -54.9607 H             1 RES     
    4426 CH3         15.2066    26.1391   -35.6031 CH3           1 RES     
    4427 CH2         21.1246    27.1426   -52.0944 CH2           1 RES     
    4428 CH2         20.5465    27.9431   -50.9126 CH2           1 RES     
    4429 CH2         20.2774    26.9931   -49.7308 CH2           1 RES     
    4430 CH2         19.6993    27.7936   -48.5490 CH2           1 RES     
    4431 CH2         19.4302    26.8435   -47.3672 CH2           1 RES     
    4432 CH2         18.8522    27.6440   -46.1854 CH2           1 RES     
    4433 CH2         18.5831    26.6940   -45.0037 CH2           1 RES     
    4434 CH2         18.0050    27.4945   -43.8219 CH2           1 RES     
    4435 CH2         17.7359    26.5445   -42.6401 CH2           1 RES     
    4436 CH2         17.1578    27.3450   -41.4583 CH2           1 RES     
    4437 CH2         16.8887    26.3949   -40.2765 CH2           1 RES     
    4438 CH2         16.3106    27.1954   -39.0947 CH2           1 RES     
    4439 CH2         16.0415    26.2454   -37.9129 CH2           1 RES     
    4440 CH2         15.4635    27.0459   -36.7312 CH2           1 RES     
    4441 O           21.1469    29.2263   -53.2024 O             1 RES     
    4442 C           21.3693    28.0166   -53.1993 C             1 RES     
    4443 OA          21.8674    27.3861   -54.2654 OA            1 RES     
    4444 H           21.9962    28.0354   -54.9607 H             1 RES     
    4445 CH3         26.0687    33.4259   -35.6031 CH3           1 RES     
    4446 CH2         32.0410    32.8253   -52.0944 CH2           1 RES     
    4447 CH2         31.6958    33.7504   -50.9126 CH2           1 RES     
    4448 CH2         31.1845    32.9057   -49.7308 CH2           1 RES     
    4449 CH2         30.8392    33.8307   -48.5490 CH2           1 RES     
    4450 CH2         30.3280    32.9860   -47.3672 CH2           1 RES     
    4451 CH2         29.9827    33.9110   -46.1854 CH2           1 RES     
    4452 CH2         29.4715    33.0663   -45.0037 CH2           1 RES     
    4453 CH2         29.1262    33.9913   -43.8219 CH2           1 RES     
    4454 CH2         28.6150    33.1466   -42.6401 CH2           1 RES     
    4455 CH2         28.2697    34.0716   -41.4583 CH2           1 RES     
    4456 CH2         27.7585    33.2269   -40.2765 CH2           1 RES     
    4457 CH2         27.4132    34.1520   -39.0947 CH2           1 RES     
    4458 CH2         26.9020    33.3072   -37.9129 CH2           1 RES     
    4459 CH2         26.5567    34.2323   -36.7312 CH2           1 RES     
    4460 O           32.6148    34.8287   -53.2024 O             1 RES     
    4461 C           32.5087    33.6033   -53.1993 C             1 RES     
    4462 OA          32.8218    32.8634   -54.2654 OA            1 RES     
    4463 H           33.1181    33.4553   -54.9607 H             1 RES     
    4464 CH3         20.5746    38.0437   -35.6031 CH3           1 RES     
    4465 CH2         26.5749    38.2040   -52.0944 CH2           1 RES     
    4466 CH2         26.1153    39.0780   -50.9126 CH2           1 RES     
    4467 CH2         25.7151    38.1753   -49.7308 CH2           1 RES     
    4468 CH2         25.2555    39.0492   -48.5490 CH2           1 RES     
    4469 CH2         24.8553    38.1465   -47.3672 CH2           1 RES     
    4470 CH2         24.3957    39.0204   -46.1854 CH2           1 RES     
    4471 CH2         23.9955    38.1177   -45.0037 CH2           1 RES     
    4472 CH2         23.5359    38.9917   -43.8219 CH2           1 RES     
    4473 CH2         23.1358    38.0890   -42.6401 CH2           1 RES     
    4474 CH2         22.6761    38.9629   -41.4583 CH2           1 RES     
    4475 CH2         22.2760    38.0602   -40.2765 CH2           1 RES     
    4476 CH2         21.8164    38.9341   -39.0947 CH2           1 RES     
    4477 CH2         21.4162    38.0314   -37.9129 CH2           1 RES     
    4478 CH2         20.9566    38.9054   -36.7312 CH2           1 RES     
    4479 O           26.8904    40.2639   -53.2024 O             1 RES     
    4480 C           26.9403    39.0349   -53.1993 C             1 RES     
    4481 OA          27.3446    38.3406   -54.2654 OA            1 RES     
    4482 H           27.5636    38.9653   -54.9607 H             1 RES     
    4483 CH3          4.1838    17.2321   -35.6031 CH3           1 RES     
    4484 CH2         10.1313    16.4212   -52.0944 CH2           1 RES     
    4485 CH2          9.8188    17.3579   -50.9126 CH2           1 RES     
    4486 CH2          9.2781    16.5317   -49.7308 CH2           1 RES     
    4487 CH2          8.9657    17.4684   -48.5490 CH2           1 RES     
    4488 CH2          8.4250    16.6422   -47.3672 CH2           1 RES     
    4489 CH2          8.1126    17.5788   -46.1854 CH2           1 RES     
    4490 CH2          7.5718    16.7526   -45.0037 CH2           1 RES     
    4491 CH2          7.2594    17.6893   -43.8219 CH2           1 RES     
    4492 CH2          6.7187    16.8631   -42.6401 CH2           1 RES     
    4493 CH2          6.4063    17.7998   -41.4583 CH2           1 RES     
    4494 CH2          5.8656    16.9736   -40.2765 CH2           1 RES     
    4495 CH2          5.5531    17.9102   -39.0947 CH2           1 RES     
    4496 CH2          5.0124    17.0840   -37.9129 CH2           1 RES     
    4497 CH2          4.7000    18.0207   -36.7312 CH2           1 RES     
    4498 O           10.7753    18.4031   -53.2024 O             1 RES     
    4499 C           10.6261    17.1822   -53.1993 C             1 RES     
    4500 OA          10.9129    16.4317   -54.2654 OA            1 RES     
    4501 H           11.2299    17.0128   -54.9607 H             1 RES     
    4502 CH3         -6.7202    -1.1476   -35.6031 CH3           1 RES     
    4503 CH2         -0.7879    -0.2324   -52.0944 CH2           1 RES     
    4504 CH2         -1.3539     0.5766   -50.9126 CH2           1 RES     
    4505 CH2         -1.6372    -0.3693   -49.7308 CH2           1 RES     
    4506 CH2         -2.2033     0.4397   -48.5490 CH2           1 RES     
    4507 CH2         -2.4865    -0.5062   -47.3672 CH2           1 RES     
    4508 CH2         -3.0526     0.3028   -46.1854 CH2           1 RES     
    4509 CH2         -3.3358    -0.6431   -45.0037 CH2           1 RES     
    4510 CH2         -3.9019     0.1660   -43.8219 CH2           1 RES     
    4511 CH2         -4.1851    -0.7800   -42.6401 CH2           1 RES     
    4512 CH2         -4.7512     0.0291   -41.4583 CH2           1 RES     
    4513 CH2         -5.0344    -0.9168   -40.2765 CH2           1 RES     
    4514 CH2         -5.6005    -0.1078   -39.0947 CH2           1 RES     
    4515 CH2         -5.8837    -1.0537   -37.9129 CH2           1 RES     
    4516 CH2         -6.4498    -0.2447   -36.7312 CH2           1 RES     
    4517 O           -0.7344     1.8508   -53.2024 O             1 RES     
    4518 C           -0.5301     0.6379   -53.1993 C             1 RES     
    4519 OA          -0.0415     0.0000   -54.2654 OA            1 RES     
    4520 H            0.0970     0.6473   -54.9607 H             1 RES     
    4521 CH3         26.1735    39.6527   -35.6031 CH3           1 RES     
    4522 CH2         32.0417    38.3899   -52.0944 CH2           1 RES     
    4523 CH2         31.8017    39.3477   -50.9126 CH2           1 RES     
    4524 CH2         31.1995    38.5652   -49.7308 CH2           1 RES     
    4525 CH2         30.9595    39.5230   -48.5490 CH2           1 RES     
    4526 CH2         30.3572    38.7405   -47.3672 CH2           1 RES     
    4527 CH2         30.1173    39.6983   -46.1854 CH2           1 RES     
    4528 CH2         29.5150    38.9158   -45.0037 CH2           1 RES     
    4529 CH2         29.2751    39.8736   -43.8219 CH2           1 RES     
    4530 CH2         28.6728    39.0911   -42.6401 CH2           1 RES     
    4531 CH2         28.4328    40.0490   -41.4583 CH2           1 RES     
    4532 CH2         27.8306    39.2665   -40.2765 CH2           1 RES     
    4533 CH2         27.5906    40.2243   -39.0947 CH2           1 RES     
    4534 CH2         26.9884    39.4418   -37.9129 CH2           1 RES     
    4535 CH2         26.7484    40.3996   -36.7312 CH2           1 RES     
    4536 O           32.8352    40.3168   -53.2024 O             1 RES     
    4537 C           32.5931    39.1108   -53.1993 C             1 RES     
    4538 OA          32.8218    38.3406   -54.2654 OA            1 RES     
    4539 H           33.1823    38.8958   -54.9607 H             1 RES     
    4540 CH3          4.1461    38.7024   -35.6031 CH3           1 RES     
    4541 CH2         10.1336    38.2794   -52.0944 CH2           1 RES     
    4542 CH2          9.7610    39.1938   -50.9126 CH2           1 RES     
    4543 CH2          9.2751    38.3343   -49.7308 CH2           1 RES     
    4544 CH2          8.9025    39.2487   -48.5490 CH2           1 RES     
    4545 CH2          8.4166    38.3891   -47.3672 CH2           1 RES     
    4546 CH2          8.0440    39.3035   -46.1854 CH2           1 RES     
    4547 CH2          7.5581    38.4439   -45.0037 CH2           1 RES     
    4548 CH2          7.1855    39.3584   -43.8219 CH2           1 RES     
    4549 CH2          6.6995    38.4988   -42.6401 CH2           1 RES     
    4550 CH2          6.3269    39.4132   -41.4583 CH2           1 RES     
    4551 CH2          5.8410    38.5536   -40.2765 CH2           1 RES     
    4552 CH2          5.4684    39.4681   -39.0947 CH2           1 RES     
    4553 CH2          4.9825    38.6085   -37.9129 CH2           1 RES     
    4554 CH2          4.6099    39.5229   -36.7312 CH2           1 RES     
    4555 O           10.6476    40.2989   -53.2024 O             1 RES     
    4556 C           10.5779    39.0709   -53.1993 C             1 RES     
    4557 OA          10.9129    38.3406   -54.2654 OA            1 RES     
    4558 H           11.1915    38.9411   -54.9607 H             1 RES     
    4559 CH3         15.0916    16.3288   -35.6031 CH3           1 RES     
    4560 CH2         21.0941    16.3172   -52.0944 CH2           1 RES     
    4561 CH2         20.6597    17.2040   -50.9126 CH2           1 RES     
    4562 CH2         20.2338    16.3131   -49.7308 CH2           1 RES     
    4563 CH2         19.7994    17.1998   -48.5490 CH2           1 RES     
    4564 CH2         19.3736    16.3090   -47.3672 CH2           1 RES     
    4565 CH2         18.9392    17.1957   -46.1854 CH2           1 RES     
    4566 CH2         18.5133    16.3048   -45.0037 CH2           1 RES     
    4567 CH2         18.0789    17.1916   -43.8219 CH2           1 RES     
    4568 CH2         17.6531    16.3007   -42.6401 CH2           1 RES     
    4569 CH2         17.2187    17.1874   -41.4583 CH2           1 RES     
    4570 CH2         16.7928    16.2966   -40.2765 CH2           1 RES     
    4571 CH2         16.3584    17.1833   -39.0947 CH2           1 RES     
    4572 CH2         15.9325    16.2924   -37.9129 CH2           1 RES     
    4573 CH2         15.4981    17.1792   -36.7312 CH2           1 RES     
    4574 O           21.4685    18.3672   -53.2024 O             1 RES     
    4575 C           21.4831    17.1373   -53.1993 C             1 RES     
    4576 OA          21.8674    16.4317   -54.2654 OA            1 RES     
    4577 H           22.1041    17.0498   -54.9607 H             1 RES     
    4578 CH3         15.0911    38.3981   -35.6031 CH3           1 RES     
    4579 CH2         21.0916    38.2445   -52.0944 CH2           1 RES     
    4580 CH2         20.6783    39.1412   -50.9126 CH2           1 RES     
    4581 CH2         20.2315    38.2607   -49.7308 CH2           1 RES     
    4582 CH2         19.8182    39.1575   -48.5490 CH2           1 RES     
    4583 CH2         19.3714    38.2769   -47.3672 CH2           1 RES     
    4584 CH2         18.9581    39.1737   -46.1854 CH2           1 RES     
    4585 CH2         18.5113    38.2932   -45.0037 CH2           1 RES     
    4586 CH2         18.0980    39.1899   -43.8219 CH2           1 RES     
    4587 CH2         17.6511    38.3094   -42.6401 CH2           1 RES     
    4588 CH2         17.2379    39.2062   -41.4583 CH2           1 RES     
    4589 CH2         16.7910    38.3256   -40.2765 CH2           1 RES     
    4590 CH2         16.3777    39.2224   -39.0947 CH2           1 RES     
    4591 CH2         15.9309    38.3419   -37.9129 CH2           1 RES     
    4592 CH2         15.5176    39.2386   -36.7312 CH2           1 RES     
    4593 O           21.5144    40.2850   -53.2024 O             1 RES     
    4594 C           21.4999    39.0551   -53.1993 C             1 RES     
    4595 OA          21.8674    38.3406   -54.2654 OA            1 RES     
    4596 H           22.1187    38.9530   -54.9607 H             1 RES     
    4597 CH3          4.1941    10.0721   -35.6031 CH3           1 RES     
    4598 CH2         10.1580    10.7517   -52.0944 CH2           1 RES     
    4599 CH2          9.6243    11.5825   -50.9126 CH2           1 RES     
    4600 CH2          9.3039    10.6486   -49.7308 CH2           1 RES     
    4601 CH2          8.7703    11.4794   -48.5490 CH2           1 RES     
    4602 CH2          8.4498    10.5454   -47.3672 CH2           1 RES     
    4603 CH2          7.9162    11.3762   -46.1854 CH2           1 RES     
    4604 CH2          7.5958    10.4423   -45.0037 CH2           1 RES     
    4605 CH2          7.0622    11.2731   -43.8219 CH2           1 RES     
    4606 CH2          6.7417    10.3391   -42.6401 CH2           1 RES     
    4607 CH2          6.2081    11.1699   -41.4583 CH2           1 RES     
    4608 CH2          5.8877    10.2359   -40.2765 CH2           1 RES     
    4609 CH2          5.3540    11.0667   -39.0947 CH2           1 RES     
    4610 CH2          5.0336    10.1328   -37.9129 CH2           1 RES     
    4611 CH2          4.5000    10.9636   -36.7312 CH2           1 RES     
    4612 O           10.2938    12.8312   -53.2024 O             1 RES     
    4613 C           10.4500    11.6111   -53.1993 C             1 RES     
    4614 OA          10.9129    10.9545   -54.2654 OA            1 RES     
    4615 H           11.0769    11.5958   -54.9607 H             1 RES     
    4616 CH3          9.6729     0.8942   -35.6031 CH3           1 RES     
    4617 CH2         15.6084     0.0005   -52.0944 CH2           1 RES     
    4618 CH2         15.3091     0.9414   -50.9126 CH2           1 RES     
    4619 CH2         14.7569     0.1228   -49.7308 CH2           1 RES     
    4620 CH2         14.4576     1.0638   -48.5490 CH2           1 RES     
    4621 CH2         13.9054     0.2452   -47.3672 CH2           1 RES     
    4622 CH2         13.6061     1.1861   -46.1854 CH2           1 RES     
    4623 CH2         13.0539     0.3676   -45.0037 CH2           1 RES     
    4624 CH2         12.7545     1.3085   -43.8219 CH2           1 RES     
    4625 CH2         12.2024     0.4899   -42.6401 CH2           1 RES     
    4626 CH2         11.9030     1.4309   -41.4583 CH2           1 RES     
    4627 CH2         11.3508     0.6123   -40.2765 CH2           1 RES     
    4628 CH2         11.0515     1.5532   -39.0947 CH2           1 RES     
    4629 CH2         10.4993     0.7346   -37.9129 CH2           1 RES     
    4630 CH2         10.2000     1.6756   -36.7312 CH2           1 RES     
    4631 O           16.2801     1.9732   -53.2024 O             1 RES     
    4632 C           16.1138     0.7544   -53.1993 C             1 RES     
    4633 OA          16.3901     0.0000   -54.2654 OA            1 RES     
    4634 H           16.7152     0.5767   -54.9607 H             1 RES     
    4635 CH3         31.5675    32.0838   -35.6031 CH3           1 RES     
    4636 CH2         37.5411    32.6722   -52.0944 CH2           1 RES     
    4637 CH2         37.0202    33.5111   -50.9126 CH2           1 RES     
    4638 CH2         36.6855    32.5821   -49.7308 CH2           1 RES     
    4639 CH2         36.1647    33.4210   -48.5490 CH2           1 RES     
    4640 CH2         35.8300    32.4920   -47.3672 CH2           1 RES     
    4641 CH2         35.3092    33.3309   -46.1854 CH2           1 RES     
    4642 CH2         34.9745    32.4019   -45.0037 CH2           1 RES     
    4643 CH2         34.4536    33.2408   -43.8219 CH2           1 RES     
    4644 CH2         34.1189    32.3119   -42.6401 CH2           1 RES     
    4645 CH2         33.5981    33.1507   -41.4583 CH2           1 RES     
    4646 CH2         33.2634    32.2218   -40.2765 CH2           1 RES     
    4647 CH2         32.7425    33.0607   -39.0947 CH2           1 RES     
    4648 CH2         32.4078    32.1317   -37.9129 CH2           1 RES     
    4649 CH2         31.8870    32.9706   -36.7312 CH2           1 RES     
    4650 O           37.7087    34.7493   -53.2024 O             1 RES     
    4651 C           37.8462    33.5270   -53.1993 C             1 RES     
    4652 OA          38.2990    32.8634   -54.2654 OA            1 RES     
    4653 H           38.4728    33.5021   -54.9607 H             1 RES     
    4654 CH3         -6.7203    12.1010   -35.6031 CH3           1 RES     
    4655 CH2         -0.8227    10.9844   -52.0944 CH2           1 RES     
    4656 CH2         -1.0864    11.9359   -50.9126 CH2           1 RES     
    4657 CH2         -1.6690    11.1387   -49.7308 CH2           1 RES     
    4658 CH2         -1.9327    12.0903   -48.5490 CH2           1 RES     
    4659 CH2         -2.5153    11.2930   -47.3672 CH2           1 RES     
    4660 CH2         -2.7790    12.2446   -46.1854 CH2           1 RES     
    4661 CH2         -3.3616    11.4474   -45.0037 CH2           1 RES     
    4662 CH2         -3.6253    12.3989   -43.8219 CH2           1 RES     
    4663 CH2         -4.2079    11.6017   -42.6401 CH2           1 RES     
    4664 CH2         -4.4716    12.5533   -41.4583 CH2           1 RES     
    4665 CH2         -5.0542    11.7561   -40.2765 CH2           1 RES     
    4666 CH2         -5.3179    12.7076   -39.0947 CH2           1 RES     
    4667 CH2         -5.9005    11.9104   -37.9129 CH2           1 RES     
    4668 CH2         -6.1642    12.8620   -36.7312 CH2           1 RES     
    4669 O           -0.0772    12.9303   -53.2024 O             1 RES     
    4670 C           -0.2893    11.7188   -53.1993 C             1 RES     
    4671 OA          -0.0415    10.9545   -54.2654 OA            1 RES     
    4672 H            0.3050    11.5185   -54.9607 H             1 RES     
    4673 OW          12.2580    25.2030     1.8370 OW            1 RES     
    4674 HW1         12.6390    25.8960     2.4490 HW1           1 RES     
    4675 HW2         11.2650    25.3100     1.7880 HW2           1 RES     
    4676 OW           7.5490     4.0280    16.2320 OW            1 RES     
    4677 HW1          8.3070     3.6220    15.7230 HW1           1 RES     
    4678 HW2          7.6220     3.7750    17.1970 HW2           1 RES     
    4679 OW           7.4060    15.0970    14.0830 OW            1 RES     
    4680 HW1          6.7910    15.1750    14.8660 HW1           1 RES     
    4681 HW2          7.9520    15.9300    14.0020 HW2           1 RES     
    4682 OW          -2.4980    11.9650     9.4170 OW            1 RES     
    4683 HW1         -1.9800    12.8200     9.4140 HW1           1 RES     
    4684 HW2         -1.8690    11.1940     9.5180 HW2           1 RES     
    4685 OW           3.1370    31.8140     8.1360 OW            1 RES     
    4686 HW1          3.6140    32.6180     8.4890 HW1           1 RES     
    4687 HW2          2.6630    32.0520     7.2880 HW2           1 RES     
    4688 OW          11.9500    29.4400    14.5680 OW            1 RES     
    4689 HW1         11.0440    29.3500    14.9810 HW1           1 RES     
    4690 HW2         12.1170    28.6650    13.9580 HW2           1 RES     
    4691 OW          44.0220     1.9030    14.0010 OW            1 RES     
    4692 HW1         44.3440     1.6300    13.0950 HW1           1 RES     
    4693 HW2         44.4110     2.7930    14.2390 HW2           1 RES     
    4694 OW          29.2140    42.9300     3.4750 OW            1 RES     
    4695 HW1         29.5890    42.0170     3.3160 HW1           1 RES     
    4696 HW2         28.4860    43.1120     2.8130 HW2           1 RES     
    4697 OW          17.8270     4.0550    15.3120 OW            1 RES     
    4698 HW1         18.6460     3.5430    15.0580 HW1           1 RES     
    4699 HW2         18.0920     4.9010    15.7750 HW2           1 RES     
    4700 OW          -6.0870    40.2410    10.3780 OW            1 RES     
    4701 HW1         -6.6310    40.0440     9.5640 HW1           1 RES     
    4702 HW2         -6.4820    39.7680    11.1660 HW2           1 RES     
    4703 OW          10.1210    21.5550     8.7310 OW            1 RES     
    4704 HW1         11.0150    21.1090     8.7500 HW1           1 RES     
    4705 HW2          9.4210    20.8890     8.4710 HW2           1 RES     
    4706 OW          41.1960     6.3350    14.1660 OW            1 RES     
    4707 HW1         41.2040     7.2660    14.5280 HW1           1 RES     
    4708 HW2         41.9370     5.8080    14.5820 HW2           1 RES     
    4709 OW           4.5680    22.9440    13.7290 OW            1 RES     
    4710 HW1          5.1080    22.1330    13.9520 HW1           1 RES     
    4711 HW2          4.3370    22.9340    12.7560 HW2           1 RES     
    4712 OW          21.5720     1.0470     5.2750 OW            1 RES     
    4713 HW1         21.2080     0.1250     5.4030 HW1           1 RES     
    4714 HW2         22.4550     0.9960     4.8080 HW2           1 RES     
    4715 OW          34.6400    39.3950    10.1240 OW            1 RES     
    4716 HW1         35.1340    40.1830     9.7600 HW1           1 RES     
    4717 HW2         33.6720    39.4660     9.8810 HW2           1 RES     
    4718 OW          34.7520    39.4920     6.7550 OW            1 RES     
    4719 HW1         35.4280    38.7580     6.6960 HW1           1 RES     
    4720 HW2         35.2130    40.3560     6.9590 HW2           1 RES     
    4721 OW          36.9130    31.0800     6.9310 OW            1 RES     
    4722 HW1         37.6960    31.6950     6.8460 HW1           1 RES     
    4723 HW2         37.2350    30.1530     7.1210 HW2           1 RES     
    4724 OW          17.0200    19.6970     1.7870 OW            1 RES     
    4725 HW1         16.2240    19.9870     2.3170 HW1           1 RES     
    4726 HW2         17.1460    18.7100     1.8870 HW2           1 RES     
    4727 OW           6.6200    -3.6440    17.0080 OW            1 RES     
    4728 HW1          6.6610    -2.6800    17.2670 HW1           1 RES     
    4729 HW2          7.5450    -4.0240    16.9880 HW2           1 RES     
    4730 OW          14.5440    33.8000    14.1110 OW            1 RES     
    4731 HW1         13.7300    33.4730    14.5890 HW1           1 RES     
    4732 HW2         14.4690    33.5830    13.1380 HW2           1 RES     
    4733 OW           7.7760    30.1990     4.6910 OW            1 RES     
    4734 HW1          8.2350    29.3130     4.7520 HW1           1 RES     
    4735 HW2          8.4570    30.9310     4.7240 HW2           1 RES     
    4736 OW          16.8120    41.2400     8.7580 OW            1 RES     
    4737 HW1         16.6370    42.1010     8.2800 HW1           1 RES     
    4738 HW2         17.7170    40.8970     8.5070 HW2           1 RES     
    4739 OW          32.8550    42.7970     7.2440 OW            1 RES     
    4740 HW1         32.0540    43.1080     7.7550 HW1           1 RES     
    4741 HW2         32.5620    42.2140     6.4860 HW2           1 RES     
    4742 OW          18.3980    30.3410     2.9790 OW            1 RES     
    4743 HW1         18.1330    29.4090     2.7360 HW1           1 RES     
    4744 HW2         19.0410    30.6940     2.2980 HW2           1 RES     
    4745 OW           8.1430    31.9350     8.5710 OW            1 RES     
    4746 HW1          7.9730    32.3740     7.6890 HW1           1 RES     
    4747 HW2          7.8520    30.9790     8.5290 HW2           1 RES     
    4748 OW          14.2540    -4.3160     7.3630 OW            1 RES     
    4749 HW1         14.0240    -3.8490     6.5100 HW1           1 RES     
    4750 HW2         14.7920    -3.7040     7.9440 HW2           1 RES     
    4751 OW          27.7900     2.8780    16.5760 OW            1 RES     
    4752 HW1         28.4140     3.4740    17.0810 HW1           1 RES     
    4753 HW2         27.3880     3.3850    15.8130 HW2           1 RES     
    4754 OW          -3.0750    42.6100    12.8350 OW            1 RES     
    4755 HW1         -3.3610    41.6870    13.0900 HW1           1 RES     
    4756 HW2         -3.8790    43.1520    12.5910 HW2           1 RES     
    4757 OW          25.9570     7.4670    11.5690 OW            1 RES     
    4758 HW1         26.8450     7.9090    11.6910 HW1           1 RES     
    4759 HW2         25.8380     6.7600    12.2660 HW2           1 RES     
    4760 OW           3.4870    31.7790    12.3160 OW            1 RES     
    4761 HW1          4.0120    31.0120    11.9490 HW1           1 RES     
    4762 HW2          4.1090    32.4320    12.7490 HW2           1 RES     
    4763 OW           9.0380    -1.9400     2.6750 OW            1 RES     
    4764 HW1          8.1810    -1.4520     2.8340 HW1           1 RES     
    4765 HW2          8.8960    -2.9200     2.8130 HW2           1 RES     
    4766 OW          22.3130     5.2470     2.4960 OW            1 RES     
    4767 HW1         21.9860     4.3030     2.4520 HW1           1 RES     
    4768 HW2         21.5370     5.8630     2.6320 HW2           1 RES     
    4769 OW          32.5030    19.1540    15.2450 OW            1 RES     
    4770 HW1         33.0580    18.3380    15.4040 HW1           1 RES     
    4771 HW2         32.2620    19.5700    16.1220 HW2           1 RES     
    4772 OW          36.4300    25.2550     2.3420 OW            1 RES     
    4773 HW1         35.4920    25.5560     2.1760 HW1           1 RES     
    4774 HW2         36.9960    26.0430     2.5860 HW2           1 RES     
    4775 OW          12.3530    15.2770     6.1440 OW            1 RES     
    4776 HW1         11.4240    15.5980     6.3240 HW1           1 RES     
    4777 HW2         13.0020    15.8090     6.6880 HW2           1 RES     
    4778 OW          29.0250     2.1720    11.6060 OW            1 RES     
    4779 HW1         28.3600     1.4390    11.4730 HW1           1 RES     
    4780 HW2         29.8520     1.9730    11.0780 HW2           1 RES     
    4781 OW          34.1130     3.2350     2.7510 OW            1 RES     
    4782 HW1         33.7190     3.1740     1.8350 HW1           1 RES     
    4783 HW2         33.4140     3.5450     3.3950 HW2           1 RES     
    4784 OW          10.0220    40.3960    10.2500 OW            1 RES     
    4785 HW1         10.3180    41.2300    10.7150 HW1           1 RES     
    4786 HW2          9.4790    39.8380    10.8780 HW2           1 RES     
    4787 OW          -3.0020    27.4090    12.6450 OW            1 RES     
    4788 HW1         -2.2470    26.7770    12.8150 HW1           1 RES     
    4789 HW2         -3.8590    26.8980    12.5830 HW2           1 RES     
    4790 OW           0.3510    13.2210    10.3610 OW            1 RES     
    4791 HW1          1.1030    12.8130     9.8440 HW1           1 RES     
    4792 HW2         -0.0060    12.5530    11.0140 HW2           1 RES     
    4793 OW          -3.3820    13.2330    15.9980 OW            1 RES     
    4794 HW1         -3.5410    12.8580    16.9100 HW1           1 RES     
    4795 HW2         -2.6150    12.7540    15.5690 HW2           1 RES     
    4796 OW          24.8230    -0.8580     2.3600 OW            1 RES     
    4797 HW1         24.1700    -0.3650     1.7860 HW1           1 RES     
    4798 HW2         24.8510    -1.8190     2.0840 HW2           1 RES     
    4799 OW          15.8180    40.1000    13.6070 OW            1 RES     
    4800 HW1         16.0660    39.2090    13.9850 HW1           1 RES     
    4801 HW2         15.0070    40.4480    14.0790 HW2           1 RES     
    4802 OW          -4.5150    -0.2880    15.3210 OW            1 RES     
    4803 HW1         -3.6430     0.0200    15.7000 HW1           1 RES     
    4804 HW2         -5.0990     0.5030    15.1400 HW2           1 RES     
    4805 OW          31.3660     5.2410    15.2250 OW            1 RES     
    4806 HW1         30.4700     5.1670    15.6630 HW1           1 RES     
    4807 HW2         31.9450     4.4810    15.5200 HW2           1 RES     
    4808 OW          40.5400    27.6030    16.7900 OW            1 RES     
    4809 HW1         40.3730    28.2610    16.0570 HW1           1 RES     
    4810 HW2         39.6840    27.4160    17.2720 HW2           1 RES     
    4811 OW           8.6510    38.2140    17.2720 OW            1 RES     
    4812 HW1          7.7990    38.5580    16.8780 HW1           1 RES     
    4813 HW2          8.8170    37.2830    16.9460 HW2           1 RES     
    4814 OW          30.5880    -3.0360     6.5030 OW            1 RES     
    4815 HW1         30.2780    -3.2840     7.4210 HW1           1 RES     
    4816 HW2         30.9800    -3.8390     6.0550 HW2           1 RES     
    4817 OW          12.6810    29.7090    16.8810 OW            1 RES     
    4818 HW1         13.5560    30.0330    17.2390 HW1           1 RES     
    4819 HW2         12.1720    30.4790    16.4950 HW2           1 RES     
    4820 OW          14.8510    18.8860    10.3730 OW            1 RES     
    4821 HW1         14.2700    19.6440    10.0770 HW1           1 RES     
    4822 HW2         15.4050    18.5700     9.6030 HW2           1 RES     
    4823 OW          25.8620    43.3140     9.2250 OW            1 RES     
    4824 HW1         25.1280    42.6370     9.2050 HW1           1 RES     
    4825 HW2         26.7420    42.8490     9.3230 HW2           1 RES     
    4826 OW          -5.1180    22.8610     1.8040 OW            1 RES     
    4827 HW1         -6.0670    22.5470     1.8040 HW1           1 RES     
    4828 HW2         -4.5050    22.0710     1.7860 HW2           1 RES     
    4829 OW          32.5950    30.8330     2.8700 OW            1 RES     
    4830 HW1         32.9380    30.0580     2.3410 HW1           1 RES     
    4831 HW2         33.3390    31.4820     3.0320 HW2           1 RES     
    4832 OW          23.4470     6.0970    17.1430 OW            1 RES     
    4833 HW1         23.8710     5.2020    17.2740 HW1           1 RES     
    4834 HW2         24.1450     6.8100    17.2120 HW2           1 RES     
    4835 OW           8.8930    27.9610    13.6090 OW            1 RES     
    4836 HW1          9.8750    28.1410    13.5620 HW1           1 RES     
    4837 HW2          8.3900    28.8050    13.4180 HW2           1 RES     
    4838 OW          20.0820     6.9130     9.8640 OW            1 RES     
    4839 HW1         20.4870     6.0040     9.9520 HW1           1 RES     
    4840 HW2         19.9540     7.1290     8.8950 HW2           1 RES     
    4841 OW          43.3250    40.5760     4.1600 OW            1 RES     
    4842 HW1         42.7640    39.7570     4.0450 HW1           1 RES     
    4843 HW2         44.2810    40.3560     3.9670 HW2           1 RES     
    4844 OW           0.7220    21.6650    15.1120 OW            1 RES     
    4845 HW1         -0.0450    21.1460    15.4900 HW1           1 RES     
    4846 HW2          1.3540    21.0400    14.6540 HW2           1 RES     
    4847 OW           7.4800     8.3800     5.5740 OW            1 RES     
    4848 HW1          7.5540     9.0900     6.2740 HW1           1 RES     
    4849 HW2          7.1330     7.5380     5.9880 HW2           1 RES     
    4850 OW          20.3170    10.9100    11.3670 OW            1 RES     
    4851 HW1         20.1700    10.3650    10.5420 HW1           1 RES     
    4852 HW2         21.2500    10.7680    11.6990 HW2           1 RES     
    4853 OW          42.8380     3.8840    10.8480 OW            1 RES     
    4854 HW1         42.7200     4.8590    11.0340 HW1           1 RES     
    4855 HW2         43.7940     3.7020    10.6150 HW2           1 RES     
    4856 OW           2.7080    36.6200     6.8110 OW            1 RES     
    4857 HW1          1.9330    37.1580     7.1430 HW1           1 RES     
    4858 HW2          3.2860    37.1920     6.2290 HW2           1 RES     
    4859 OW           6.6420    36.3010     8.8250 OW            1 RES     
    4860 HW1          7.5410    36.3130     8.3880 HW1           1 RES     
    4861 HW2          6.2670    35.3750     8.7920 HW2           1 RES     
    4862 OW          36.5910    15.4050    16.5330 OW            1 RES     
    4863 HW1         36.9580    15.9930    17.2530 HW1           1 RES     
    4864 HW2         36.6300    14.4500    16.8300 HW2           1 RES     
    4865 OW           1.4310    27.8660     6.8600 OW            1 RES     
    4866 HW1          0.6370    27.2850     7.0340 HW1           1 RES     
    4867 HW2          2.2680    27.3590     7.0700 HW2           1 RES     
    4868 OW           1.2110    27.0090    10.9330 OW            1 RES     
    4869 HW1          1.6850    27.7870    10.5210 HW1           1 RES     
    4870 HW2          1.8590    26.2620    11.0790 HW2           1 RES     
    4871 OW          31.7950    -0.9690     8.8370 OW            1 RES     
    4872 HW1         31.4390    -0.0910     9.1570 HW1           1 RES     
    4873 HW2         32.7380    -0.8530     8.5240 HW2           1 RES     
    4874 OW          25.4550    42.8310     6.2770 OW            1 RES     
    4875 HW1         25.4960    42.0280     5.6830 HW1           1 RES     
    4876 HW2         24.8160    42.6590     7.0270 HW2           1 RES     
    4877 OW          32.8130     6.8980     2.3810 OW            1 RES     
    4878 HW1         32.8390     7.0720     3.3650 HW1           1 RES     
    4879 HW2         32.4920     7.7180     1.9060 HW2           1 RES     
    4880 OW           3.8830     0.8040    17.2740 OW            1 RES     
    4881 HW1          4.5800     1.5190    17.2300 HW1           1 RES     
    4882 HW2          3.0930     1.0730    16.7220 HW2           1 RES     
    4883 OW           9.9760    13.1290     2.4760 OW            1 RES     
    4884 HW1         10.6460    13.8680     2.5320 HW1           1 RES     
    4885 HW2          9.0720    13.5100     2.2830 HW2           1 RES     
    4886 OW          25.7420    12.6540     8.0750 OW            1 RES     
    4887 HW1         25.8420    13.4360     7.4610 HW1           1 RES     
    4888 HW2         26.5880    12.5250     8.5930 HW2           1 RES     
    4889 OW          23.0320    11.1450     9.5320 OW            1 RES     
    4890 HW1         23.8160    11.1690    10.1510 HW1           1 RES     
    4891 HW2         22.4040    11.8900     9.7590 HW2           1 RES     
    4892 OW          12.3060     9.4670    14.3930 OW            1 RES     
    4893 HW1         11.8970     8.6410    14.0080 HW1           1 RES     
    4894 HW2         11.5850    10.0590    14.7550 HW2           1 RES     
    4895 OW          24.4170    -0.7190    13.0720 OW            1 RES     
    4896 HW1         24.6970    -0.2620    12.2290 HW1           1 RES     
    4897 HW2         24.3620    -1.7050    12.9150 HW2           1 RES     
    4898 OW          15.8270    -1.1060     4.8560 OW            1 RES     
    4899 HW1         16.3750    -0.3040     4.6230 HW1           1 RES     
    4900 HW2         16.3480    -1.6990     5.4710 HW2           1 RES     
    4901 OW          -6.2250    41.6900    15.7530 OW            1 RES     
    4902 HW1         -5.5190    40.9870    15.6780 HW1           1 RES     
    4903 HW2         -5.7970    42.5940    15.7560 HW2           1 RES     
    4904 OW          10.2990    20.6600     1.7860 OW            1 RES     
    4905 HW1         11.2300    21.0230     1.8050 HW1           1 RES     
    4906 HW2         10.2110    19.9320     2.4660 HW2           1 RES     
    4907 OW          -1.9650    25.4200    15.2880 OW            1 RES     
    4908 HW1         -2.9300    25.6240    15.1300 HW1           1 RES     
    4909 HW2         -1.4070    26.1970    14.9980 HW2           1 RES     
    4910 OW          22.0950    19.3010     4.2020 OW            1 RES     
    4911 HW1         21.0990    19.3080     4.2870 HW1           1 RES     
    4912 HW2         22.3890    18.4320     3.8030 HW2           1 RES     
    4913 OW           5.1740    37.7760     7.2740 OW            1 RES     
    4914 HW1          6.0920    38.0670     7.5410 HW1           1 RES     
    4915 HW2          4.4980    38.3880     7.6840 HW2           1 RES     
    4916 OW          40.6720    29.9140    10.1720 OW            1 RES     
    4917 HW1         41.1520    29.5240    10.9560 HW1           1 RES     
    4918 HW2         39.7950    30.2910    10.4710 HW2           1 RES     
    4919 OW          16.4530    35.4370    15.2880 OW            1 RES     
    4920 HW1         16.6080    34.5050    15.6150 HW1           1 RES     
    4921 HW2         15.5560    35.7540    15.5980 HW2           1 RES     
    4922 OW          -1.3720    29.8630    14.7000 OW            1 RES     
    4923 HW1         -0.5820    29.2610    14.5920 HW1           1 RES     
    4924 HW2         -2.2090    29.3550    14.5000 HW2           1 RES     
    4925 OW          18.0680    34.8160     6.0310 OW            1 RES     
    4926 HW1         17.7540    35.2750     5.2010 HW1           1 RES     
    4927 HW2         18.0680    33.8260     5.8860 HW2           1 RES     
    4928 OW          -3.9420     7.2380     7.6580 OW            1 RES     
    4929 HW1         -3.5520     6.3490     7.9000 HW1           1 RES     
    4930 HW2         -4.7340     7.1040     7.0620 HW2           1 RES     
    4931 OW          20.9740    18.8010    10.1570 OW            1 RES     
    4932 HW1         20.1100    18.3120    10.2670 HW1           1 RES     
    4933 HW2         21.6680    18.1760     9.7990 HW2           1 RES     
    4934 OW           7.1270    38.2300    13.1530 OW            1 RES     
    4935 HW1          6.2300    38.3990    13.5610 HW1           1 RES     
    4936 HW2          7.5820    39.1020    12.9720 HW2           1 RES     
    4937 OW          27.4100    26.7830     5.0200 OW            1 RES     
    4938 HW1         27.7570    27.3960     4.3110 HW1           1 RES     
    4939 HW2         27.8400    27.0070     5.8950 HW2           1 RES     
    4940 OW          24.9720    27.0130    16.9230 OW            1 RES     
    4941 HW1         24.9890    27.9700    16.6360 HW1           1 RES     
    4942 HW2         25.7930    26.5500    16.5890 HW2           1 RES     
    4943 OW           5.9050    -2.8750     4.1050 OW            1 RES     
    4944 HW1          5.6320    -3.7400     4.5240 HW1           1 RES     
    4945 HW2          5.1450    -2.2270     4.1510 HW2           1 RES     
    4946 OW          29.7690    16.3790     1.7860 OW            1 RES     
    4947 HW1         28.8330    16.3220     2.1320 HW1           1 RES     
    4948 HW2         30.3880    15.9140     2.4190 HW2           1 RES     
    4949 OW          26.7840     5.5840    13.9190 OW            1 RES     
    4950 HW1         26.4730     4.6830    14.2180 HW1           1 RES     
    4951 HW2         27.7780     5.5740    13.8060 HW2           1 RES     
    4952 OW          35.0360    40.7650    12.8760 OW            1 RES     
    4953 HW1         34.8380    41.7090    13.1370 HW1           1 RES     
    4954 HW2         35.2100    40.7190    11.8920 HW2           1 RES     
    4955 OW          -1.5150    37.1050     9.3400 OW            1 RES     
    4956 HW1         -0.5640    37.3170     9.1180 HW1           1 RES     
    4957 HW2         -1.5660    36.1980     9.7590 HW2           1 RES     
    4958 OW          -5.7320     3.3250     9.1260 OW            1 RES     
    4959 HW1         -4.9170     3.6830     9.5800 HW1           1 RES     
    4960 HW2         -5.7440     3.6290     8.1730 HW2           1 RES     
    4961 OW          26.0060    13.7860    11.1900 OW            1 RES     
    4962 HW1         25.4130    13.1990    11.7390 HW1           1 RES     
    4963 HW2         25.7380    13.7260    10.2280 HW2           1 RES     
    4964 OW          32.9580    37.8260    11.1620 OW            1 RES     
    4965 HW1         32.0740    37.3610    11.1990 HW1           1 RES     
    4966 HW2         33.6930    37.1500    11.2200 HW2           1 RES     
    4967 OW           5.7680    31.9900     5.6210 OW            1 RES     
    4968 HW1          6.7650    31.9690     5.6720 HW1           1 RES     
    4969 HW2          5.4550    32.9390     5.5830 HW2           1 RES     
    4970 OW          38.8410    16.2050    14.2550 OW            1 RES     
    4971 HW1         39.0110    17.1900    14.2730 HW1           1 RES     
    4972 HW2         39.7100    15.7180    14.1660 HW2           1 RES     
    4973 OW          29.7750    10.3750    16.9660 OW            1 RES     
    4974 HW1         30.4760     9.7330    17.2740 HW1           1 RES     
    4975 HW2         28.9430     9.8720    16.7290 HW2           1 RES     
    4976 OW          16.2670    26.2420     8.2340 OW            1 RES     
    4977 HW1         17.0880    25.6780     8.1510 HW1           1 RES     
    4978 HW2         16.4450    27.1480     7.8500 HW2           1 RES     
    4979 OW          24.3100    24.4110     5.2650 OW            1 RES     
    4980 HW1         24.2120    25.2000     4.6590 HW1           1 RES     
    4981 HW2         25.2550    24.0840     5.2390 HW2           1 RES     
    4982 OW          19.9740    40.5620    13.1430 OW            1 RES     
    4983 HW1         19.6990    41.4330    12.7370 HW1           1 RES     
    4984 HW2         19.5650    40.4730    14.0520 HW2           1 RES     
    4985 OW           0.6220    -3.6080    16.3200 OW            1 RES     
    4986 HW1          0.4080    -4.3150    15.6460 HW1           1 RES     
    4987 HW2          0.9560    -2.7900    15.8520 HW2           1 RES     
    4988 OW           5.9920     8.9700    16.3420 OW            1 RES     
    4989 HW1          6.5400     8.2260    16.7220 HW1           1 RES     
    4990 HW2          6.3960     9.8480    16.5990 HW2           1 RES     
    4991 OW           5.5190    12.5780     5.6790 OW            1 RES     
    4992 HW1          4.6580    13.0600     5.8330 HW1           1 RES     
    4993 HW2          6.2440    13.2410     5.4900 HW2           1 RES     
    4994 OW          32.0670     9.4890     3.1400 OW            1 RES     
    4995 HW1         32.1190    10.4390     3.4460 HW1           1 RES     
    4996 HW2         31.1750     9.1080     3.3830 HW2           1 RES     
    4997 OW          11.3220    30.4010    10.7950 OW            1 RES     
    4998 HW1         10.8330    29.5310    10.8410 HW1           1 RES     
    4999 HW2         10.6760    31.1540    10.9220 HW2           1 RES     
    5000 OW          15.4160    36.7680     7.0300 OW            1 RES     
    5001 HW1         14.7010    37.4620     7.1090 HW1           1 RES     
    5002 HW2         16.0940    37.0630     6.3560 HW2           1 RES     
    5003 OW          25.2450    -1.7120     8.9810 OW            1 RES     
    5004 HW1         25.9390    -1.4290     9.6410 HW1           1 RES     
    5005 HW2         24.8030    -2.5510     9.2990 HW2           1 RES     
    5006 OW          34.6700    19.9120    11.2850 OW            1 RES     
    5007 HW1         34.9850    20.5540    10.5870 HW1           1 RES     
    5008 HW2         33.7330    20.1410    11.5510 HW2           1 RES     
    5009 OW          28.7600    32.8780    16.3400 OW            1 RES     
    5010 HW1         29.3050    32.9160    17.1770 HW1           1 RES     
    5011 HW2         28.7670    31.9450    15.9790 HW2           1 RES     
    5012 OW          14.7820    12.8760    11.6570 OW            1 RES     
    5013 HW1         15.0300    12.1580    12.3070 HW1           1 RES     
    5014 HW2         13.8750    12.6870    11.2820 HW2           1 RES     
    5015 OW           4.0120    11.1510     4.9500 OW            1 RES     
    5016 HW1          4.7220    10.4870     5.1820 HW1           1 RES     
    5017 HW2          4.0320    11.3320     3.9670 HW2           1 RES     
    5018 OW          24.6210    12.0010    15.7510 OW            1 RES     
    5019 HW1         23.6760    11.9550    15.4290 HW1           1 RES     
    5020 HW2         24.9710    12.9300    15.6250 HW2           1 RES     
    5021 OW          -4.5330     1.9780    17.2740 OW            1 RES     
    5022 HW1         -5.3350     2.5740    17.2680 HW1           1 RES     
    5023 HW2         -4.8270     1.0220    17.2610 HW2           1 RES     
    5024 OW          38.9740    35.3600     3.2010 OW            1 RES     
    5025 HW1         38.5500    34.4560     3.2260 HW1           1 RES     
    5026 HW2         38.2620    36.0620     3.1770 HW2           1 RES     
    5027 OW          41.9900    13.4180     1.7950 OW            1 RES     
    5028 HW1         41.2230    14.0600     1.8040 HW1           1 RES     
    5029 HW2         42.8510    13.9270     1.7870 HW2           1 RES     
    5030 OW           2.3490    42.5800     3.3960 OW            1 RES     
    5031 HW1          1.5620    41.9740     3.5070 HW1           1 RES     
    5032 HW2          2.9440    42.5040     4.1970 HW2           1 RES     
    5033 OW          36.4270     4.0640    16.5930 OW            1 RES     
    5034 HW1         36.9250     4.9300    16.5940 HW1           1 RES     
    5035 HW2         35.6160     4.1440    17.1730 HW2           1 RES     
    5036 OW          31.9760     4.9610     4.9370 OW            1 RES     
    5037 HW1         31.5980     4.5750     4.0960 HW1           1 RES     
    5038 HW2         31.7710     5.9390     4.9770 HW2           1 RES     
    5039 OW          37.6770    33.4100    12.2370 OW            1 RES     
    5040 HW1         37.7100    32.4360    12.0180 HW1           1 RES     
    5041 HW2         36.9290    33.8410    11.7310 HW2           1 RES     
    5042 OW          -5.2280    10.4630     1.7860 OW            1 RES     
    5043 HW1         -4.2320    10.3820     1.7860 HW1           1 RES     
    5044 HW2         -5.4850    11.4290     1.7860 HW2           1 RES     
    5045 OW          -6.0110    26.8230     5.8990 OW            1 RES     
    5046 HW1         -5.0990    26.4140     5.8980 HW1           1 RES     
    5047 HW2         -6.6770    26.1560     5.5640 HW2           1 RES     
    5048 OW          39.7550    23.2110    16.3940 OW            1 RES     
    5049 HW1         40.1930    23.7830    17.0860 HW1           1 RES     
    5050 HW2         39.6140    23.7440    15.5600 HW2           1 RES     
    5051 OW          26.5780    27.2660    10.6830 OW            1 RES     
    5052 HW1         26.2260    26.3920    10.3480 HW1           1 RES     
    5053 HW2         27.5760    27.2680    10.6270 HW2           1 RES     
    5054 OW          15.3200    35.0360     9.4450 OW            1 RES     
    5055 HW1         15.4830    36.0190     9.3640 HW1           1 RES     
    5056 HW2         14.3590    34.8390     9.2490 HW2           1 RES     
    5057 OW          34.0680     1.1500     6.8260 OW            1 RES     
    5058 HW1         34.5500     2.0230     6.8940 HW1           1 RES     
    5059 HW2         34.7240     0.3990     6.9120 HW2           1 RES     
    5060 OW          39.6190    -3.7070     6.5750 OW            1 RES     
    5061 HW1         40.4520    -4.2490     6.4750 HW1           1 RES     
    5062 HW2         38.8440    -4.3150     6.7500 HW2           1 RES     
    5063 OW          43.7760     3.3150     5.5270 OW            1 RES     
    5064 HW1         44.6430     2.9050     5.2470 HW1           1 RES     
    5065 HW2         43.2040     2.6200     5.9630 HW2           1 RES     
    5066 OW          40.5750    31.5610    12.8890 OW            1 RES     
    5067 HW1         40.6640    30.5660    12.8650 HW1           1 RES     
    5068 HW2         39.9500    31.8230    13.6240 HW2           1 RES     
    5069 OW          21.5050     4.1730    17.2730 OW            1 RES     
    5070 HW1         21.1090     3.2600    17.1820 HW1           1 RES     
    5071 HW2         21.8690     4.4690    16.3900 HW2           1 RES     
    5072 OW          22.9720    35.0700     4.3660 OW            1 RES     
    5073 HW1         22.1690    35.6230     4.1470 HW1           1 RES     
    5074 HW2         22.7010    34.1120     4.4660 HW2           1 RES     
    5075 OW          19.7340    27.9000     4.8560 OW            1 RES     
    5076 HW1         19.3970    27.9740     3.9180 HW1           1 RES     
    5077 HW2         19.5130    28.7370     5.3570 HW2           1 RES     
    5078 OW          32.0280    29.9500     7.1640 OW            1 RES     
    5079 HW1         31.4300    30.5730     7.6680 HW1           1 RES     
    5080 HW2         32.3360    30.3930     6.3220 HW2           1 RES     
    5081 OW          35.0820     1.3000    14.6520 OW            1 RES     
    5082 HW1         34.8000     2.2590    14.6740 HW1           1 RES     
    5083 HW2         34.3350     0.7400    14.2940 HW2           1 RES     
    5084 OW          29.4490    30.1520    14.7890 OW            1 RES     
    5085 HW1         28.8500    29.5720    14.2380 HW1           1 RES     
    5086 HW2         29.8620    29.6080    15.5190 HW2           1 RES     
    5087 OW          22.0030    17.1150    11.7040 OW            1 RES     
    5088 HW1         22.0070    16.2050    11.2900 HW1           1 RES     
    5089 HW2         22.8120    17.2210    12.2830 HW2           1 RES     
    5090 OW          16.5980     6.4630    16.1910 OW            1 RES     
    5091 HW1         16.3570     7.3980    16.4510 HW1           1 RES     
    5092 HW2         15.9300     6.1180    15.5310 HW2           1 RES     
    5093 OW          37.4450    -3.2280     8.3900 OW            1 RES     
    5094 HW1         36.7350    -3.6810     8.9280 HW1           1 RES     
    5095 HW2         37.1030    -2.3490     8.0590 HW2           1 RES     
    5096 OW          18.9130     9.4330     5.3960 OW            1 RES     
    5097 HW1         17.9180     9.4720     5.4760 HW1           1 RES     
    5098 HW2         19.1740     8.6150     4.8820 HW2           1 RES     
    5099 OW           7.1160    17.7700     2.5790 OW            1 RES     
    5100 HW1          8.1080    17.7510     2.6990 HW1           1 RES     
    5101 HW2          6.7960    16.8640     2.3030 HW2           1 RES     
    5102 OW          44.2650    36.5010    13.5430 OW            1 RES     
    5103 HW1         43.3160    36.4280    13.2370 HW1           1 RES     
    5104 HW2         44.3050    36.3940    14.5360 HW2           1 RES     
    5105 OW          10.6490     3.6250     2.6240 OW            1 RES     
    5106 HW1          9.9770     3.2720     3.2740 HW1           1 RES     
    5107 HW2         11.3330     4.1670     3.1120 HW2           1 RES     
    5108 OW          34.7490    33.0540    13.4050 OW            1 RES     
    5109 HW1         35.3010    32.6680    12.6660 HW1           1 RES     
    5110 HW2         35.2440    32.9690    14.2700 HW2           1 RES     
    5111 OW           3.3970    31.2660     4.7260 OW            1 RES     
    5112 HW1          3.4650    30.4360     4.1740 HW1           1 RES     
    5113 HW2          3.7600    31.0900     5.6410 HW2           1 RES     
    5114 OW          26.1970    10.5010     7.2150 OW            1 RES     
    5115 HW1         25.2810    10.4070     7.6030 HW1           1 RES     
    5116 HW2         26.5090     9.6130     6.8770 HW2           1 RES     
    5117 OW          42.9520    41.4920     9.8870 OW            1 RES     
    5118 HW1         42.0720    41.3760    10.3460 HW1           1 RES     
    5119 HW2         43.2320    40.6240     9.4770 HW2           1 RES     
    5120 OW          28.8220    42.5330    12.9640 OW            1 RES     
    5121 HW1         29.3390    41.9050    13.5440 HW1           1 RES     
    5122 HW2         28.3540    42.0170    12.2460 HW2           1 RES     
    5123 OW           2.6860    26.3410     9.0420 OW            1 RES     
    5124 HW1          3.1850    25.5830     9.4590 HW1           1 RES     
    5125 HW2          3.2610    27.1590     9.0390 HW2           1 RES     
    5126 OW          -5.8400    41.4420    13.2910 OW            1 RES     
    5127 HW1         -6.6750    41.0660    13.6920 HW1           1 RES     
    5128 HW2         -5.3380    40.7150    12.8230 HW2           1 RES     
    5129 OW          -1.7290    -2.7730    11.7140 OW            1 RES     
    5130 HW1         -2.1730    -1.8790    11.6650 HW1           1 RES     
    5131 HW2         -2.1620    -3.3230    12.4280 HW2           1 RES     
    5132 OW          23.6350    23.5280    16.4810 OW            1 RES     
    5133 HW1         23.5500    22.7410    15.8710 HW1           1 RES     
    5134 HW2         23.0400    23.4010    17.2740 HW2           1 RES     
    5135 OW          15.5930     5.3630    12.7960 OW            1 RES     
    5136 HW1         14.7270     5.6000    13.2360 HW1           1 RES     
    5137 HW2         16.2390     5.0330    13.4840 HW2           1 RES     
    5138 OW          -5.8400    10.7040     3.8860 OW            1 RES     
    5139 HW1         -6.7730    10.3500     3.8340 HW1           1 RES     
    5140 HW2         -5.8070    11.4680     4.5300 HW2           1 RES     
    5141 OW          37.9200    18.8160    11.7340 OW            1 RES     
    5142 HW1         37.8140    18.3400    12.6060 HW1           1 RES     
    5143 HW2         37.3860    18.3460    11.0300 HW2           1 RES     
    5144 OW          41.6900    17.7060    14.7700 OW            1 RES     
    5145 HW1         40.8630    18.2680    14.7770 HW1           1 RES     
    5146 HW2         41.5530    16.9180    14.1700 HW2           1 RES     
    5147 OW          -6.1070    -3.2160    10.3330 OW            1 RES     
    5148 HW1         -6.6820    -2.4110    10.4760 HW1           1 RES     
    5149 HW2         -6.6830    -4.0020    10.1100 HW2           1 RES     
    5150 OW           2.5780     3.1750     7.5640 OW            1 RES     
    5151 HW1          1.5910     3.0370     7.6470 HW1           1 RES     
    5152 HW2          3.0510     2.3100     7.7350 HW2           1 RES     
    5153 OW           3.0580    11.2690    14.4840 OW            1 RES     
    5154 HW1          3.8070    10.9790    15.0790 HW1           1 RES     
    5155 HW2          2.2390    10.7340    14.6930 HW2           1 RES     
    5156 OW          44.0670    11.8560     3.1880 OW            1 RES     
    5157 HW1         43.0900    11.9350     2.9900 HW1           1 RES     
    5158 HW2         44.4630    12.7700     3.2860 HW2           1 RES     
    5159 OW           6.5580    24.7110     3.3380 OW            1 RES     
    5160 HW1          6.0860    25.5710     3.1510 HW1           1 RES     
    5161 HW2          7.4360    24.9000     3.7790 HW2           1 RES     
    5162 OW          20.3160    31.4400    12.2540 OW            1 RES     
    5163 HW1         20.4370    31.5280    13.2430 HW1           1 RES     
    5164 HW2         21.0220    30.8370    11.8840 HW2           1 RES     
    5165 OW           3.2750     8.3730    15.9540 OW            1 RES     
    5166 HW1          3.4070     9.2530    16.4100 HW1           1 RES     
    5167 HW2          4.1310     7.8570    15.9710 HW2           1 RES     
    5168 OW          26.8960    39.1340    11.4550 OW            1 RES     
    5169 HW1         26.8950    40.1070    11.2240 HW1           1 RES     
    5170 HW2         26.8160    39.0260    12.4460 HW2           1 RES     
    5171 OW          29.5750     5.2640     2.6770 OW            1 RES     
    5172 HW1         30.4900     5.6120     2.4750 HW1           1 RES     
    5173 HW2         29.5080     4.3100     2.3850 HW2           1 RES     
    5174 OW          19.6280    14.0750     5.4900 OW            1 RES     
    5175 HW1         19.0160    13.6580     6.1610 HW1           1 RES     
    5176 HW2         19.4850    15.0650     5.4780 HW2           1 RES     
    5177 OW          39.4320    14.1450    11.8850 OW            1 RES     
    5178 HW1         39.5670    13.1640    12.0180 HW1           1 RES     
    5179 HW2         38.8020    14.4930    12.5800 HW2           1 RES     
    5180 OW          -5.7030    42.8640     9.1600 OW            1 RES     
    5181 HW1         -4.9130    42.8070     9.7690 HW1           1 RES     
    5182 HW2         -6.4590    43.3140     9.6350 HW2           1 RES     
    5183 OW          25.9940    18.2380    12.4390 OW            1 RES     
    5184 HW1         26.3970    18.1860    11.5260 HW1           1 RES     
    5185 HW2         26.1890    19.1330    12.8400 HW2           1 RES     
    5186 OW          -5.5520    34.0810     2.7100 OW            1 RES     
    5187 HW1         -5.9620    33.2010     2.9470 HW1           1 RES     
    5188 HW2         -4.5880    33.9480     2.4770 HW2           1 RES     
    5189 OW           2.1270     6.2420    10.9880 OW            1 RES     
    5190 HW1          2.8870     6.3540    11.6270 HW1           1 RES     
    5191 HW2          2.4500     5.7770    10.1630 HW2           1 RES     
    5192 OW          29.4990    -3.5590     2.4520 OW            1 RES     
    5193 HW1         29.5630    -2.8170     1.7860 HW1           1 RES     
    5194 HW2         30.2160    -4.2330     2.2710 HW2           1 RES     
    5195 OW          16.0230    22.5570     1.9050 OW            1 RES     
    5196 HW1         16.8840    22.0490     1.9260 HW1           1 RES     
    5197 HW2         15.2570    21.9150     1.8810 HW2           1 RES     
    5198 OW           4.2570    11.3080     8.3770 OW            1 RES     
    5199 HW1          4.5170    10.3670     8.1670 HW1           1 RES     
    5200 HW2          4.7300    11.9320     7.7550 HW2           1 RES     
    5201 OW          -4.2200     4.5890     6.2890 OW            1 RES     
    5202 HW1         -3.7260     4.2970     7.1080 HW1           1 RES     
    5203 HW2         -4.4610     3.7880     5.7410 HW2           1 RES     
    5204 OW           4.5610    15.7500     4.0280 OW            1 RES     
    5205 HW1          4.7750    14.8070     3.7770 HW1           1 RES     
    5206 HW2          5.3820    16.3150     3.9380 HW2           1 RES     
    5207 OW           5.4590    38.9540     2.2180 OW            1 RES     
    5208 HW1          5.3080    38.0650     1.7860 HW1           1 RES     
    5209 HW2          4.5820    39.3350     2.5130 HW2           1 RES     
    5210 OW           3.1300    29.6590     7.6190 OW            1 RES     
    5211 HW1          2.5240    29.7180     8.4100 HW1           1 RES     
    5212 HW2          3.7940    28.9240     7.7610 HW2           1 RES     
    5213 OW          23.2930    35.9050    14.0870 OW            1 RES     
    5214 HW1         23.0340    35.1360    13.5040 HW1           1 RES     
    5215 HW2         24.2830    35.8990    14.2280 HW2           1 RES     
    5216 OW          31.9680    33.9080    15.4470 OW            1 RES     
    5217 HW1         31.3590    34.6940    15.5460 HW1           1 RES     
    5218 HW2         32.9170    34.2220    15.4250 HW2           1 RES     
    5219 OW          33.9930    -1.2780     4.3630 OW            1 RES     
    5220 HW1         34.1200    -1.2960     3.3720 HW1           1 RES     
    5221 HW2         33.0400    -1.4870     4.5820 HW2           1 RES     
    5222 OW          21.9240     1.6840    15.8790 OW            1 RES     
    5223 HW1         21.4230     2.2370    15.2140 HW1           1 RES     
    5224 HW2         22.7510     1.3170    15.4520 HW2           1 RES     
    5225 OW          38.0670    30.1080    11.8210 OW            1 RES     
    5226 HW1         37.9210    29.1380    12.0130 HW1           1 RES     
    5227 HW2         37.6180    30.3490    10.9600 HW2           1 RES     
    5228 OW          38.8110     2.4340    17.1870 OW            1 RES     
    5229 HW1         38.3970     3.3390    17.2740 HW1           1 RES     
    5230 HW2         39.7890     2.5310    16.9990 HW2           1 RES     
    5231 OW          21.9750     4.2950     8.4810 OW            1 RES     
    5232 HW1         21.6420     3.3530     8.4990 HW1           1 RES     
    5233 HW2         21.2770     4.8880     8.0780 HW2           1 RES     
    5234 OW          24.8720     2.6090    16.6640 OW            1 RES     
    5235 HW1         24.0690     2.1340    17.0240 HW1           1 RES     
    5236 HW2         25.7010     2.1350    16.9600 HW2           1 RES     
    5237 OW           1.0440    -2.9190     5.7700 OW            1 RES     
    5238 HW1          0.7000    -1.9990     5.9550 HW1           1 RES     
    5239 HW2          2.0190    -2.8730     5.5510 HW2           1 RES     
    5240 OW           3.7440     6.5010     8.4510 OW            1 RES     
    5241 HW1          2.9730     7.1370     8.4560 HW1           1 RES     
    5242 HW2          4.5960     7.0090     8.3280 HW2           1 RES     
    5243 OW          25.5840    39.2130    15.1710 OW            1 RES     
    5244 HW1         25.5980    38.2420    15.4070 HW1           1 RES     
    5245 HW2         24.6390    39.5400    15.1600 HW2           1 RES     
    5246 OW           3.2120    33.9750    14.0360 OW            1 RES     
    5247 HW1          2.6960    34.7440    14.4120 HW1           1 RES     
    5248 HW2          3.0400    33.1570    14.5850 HW2           1 RES     
    5249 OW           4.3920     9.3120    10.3130 OW            1 RES     
    5250 HW1          3.9640     8.5420     9.8400 HW1           1 RES     
    5251 HW2          3.6930     9.9840    10.5580 HW2           1 RES     
    5252 OW          27.2130    -3.7320    15.9990 OW            1 RES     
    5253 HW1         27.7510    -4.2140    15.3080 HW1           1 RES     
    5254 HW2         27.6650    -2.8710    16.2330 HW2           1 RES     
    5255 OW          23.2170    -2.5550    11.1090 OW            1 RES     
    5256 HW1         23.9910    -3.1730    11.2490 HW1           1 RES     
    5257 HW2         23.5560    -1.6450    10.8690 HW2           1 RES     
    5258 OW          38.3530    29.0300    14.3320 OW            1 RES     
    5259 HW1         38.6870    29.8860    13.9390 HW1           1 RES     
    5260 HW2         39.0730    28.3370    14.2830 HW2           1 RES     
    5261 OW          10.3730    36.4590    12.8160 OW            1 RES     
    5262 HW1         10.0020    35.5450    12.6580 HW1           1 RES     
    5263 HW2          9.6230    37.1190    12.8680 HW2           1 RES     
    5264 OW           3.1380    40.5020    17.2490 OW            1 RES     
    5265 HW1          2.6150    40.7900    16.4470 HW1           1 RES     
    5266 HW2          4.0090    40.9930    17.2740 HW2           1 RES     
    5267 OW          -4.6670    -3.7680    16.8240 OW            1 RES     
    5268 HW1         -4.2320    -4.3150    16.1090 HW1           1 RES     
    5269 HW2         -5.3850    -4.3070    17.2660 HW2           1 RES     
    5270 OW          45.1090    19.1030    14.9280 OW            1 RES     
    5271 HW1         44.3420    18.6650    15.3960 HW1           1 RES     
    5272 HW2         45.1040    20.0840    15.1250 HW2           1 RES     
    5273 OW           8.9720    13.8360     7.3730 OW            1 RES     
    5274 HW1          8.2740    14.4970     7.1020 HW1           1 RES     
    5275 HW2          9.0220    13.1040     6.6940 HW2           1 RES     
    5276 OW          36.2060     6.8550    14.2260 OW            1 RES     
    5277 HW1         35.7060     5.9900    14.2030 HW1           1 RES     
    5278 HW2         35.6090     7.5760    14.5780 HW2           1 RES     
    5279 OW          13.0560    19.3800     6.0980 OW            1 RES     
    5280 HW1         13.5410    18.9610     5.3310 HW1           1 RES     
    5281 HW2         13.0420    20.3740     5.9820 HW2           1 RES     
    5282 OW          40.3850    11.1250    12.3420 OW            1 RES     
    5283 HW1         39.5540    10.5820    12.4580 HW1           1 RES     
    5284 HW2         41.1260    10.5370    12.0180 HW2           1 RES     
    5285 OW           5.6430    32.6260     3.2890 OW            1 RES     
    5286 HW1          5.2190    31.7470     3.5040 HW1           1 RES     
    5287 HW2          5.3050    32.9510     2.4050 HW2           1 RES     
    5288 OW           4.7900    35.1990    17.2740 OW            1 RES     
    5289 HW1          5.6120    34.6310    17.2540 HW1           1 RES     
    5290 HW2          3.9840    34.6240    17.1310 HW2           1 RES     
    5291 OW          16.0330    43.2020    14.2670 OW            1 RES     
    5292 HW1         15.7580    43.3140    13.3130 HW1           1 RES     
    5293 HW2         16.2320    42.2380    14.4470 HW2           1 RES     
    5294 OW          25.3330    34.2730     6.2190 OW            1 RES     
    5295 HW1         24.8400    33.7120     6.8830 HW1           1 RES     
    5296 HW2         25.3550    33.8040     5.3360 HW2           1 RES     
    5297 OW          18.7180     4.7540    11.8350 OW            1 RES     
    5298 HW1         19.0400     5.6990    11.7950 HW1           1 RES     
    5299 HW2         19.5020     4.1360    11.8870 HW2           1 RES     
    5300 OW          -4.2960     8.5880    11.9230 OW            1 RES     
    5301 HW1         -5.2020     8.8020    11.5600 HW1           1 RES     
    5302 HW2         -3.6780     9.3560    11.7550 HW2           1 RES     
    5303 OW          26.5420    17.0070    14.7900 OW            1 RES     
    5304 HW1         25.9440    17.7940    14.6400 HW1           1 RES     
    5305 HW2         26.3360    16.2980    14.1150 HW2           1 RES     
    5306 OW          13.3720    13.5410     5.2490 OW            1 RES     
    5307 HW1         13.6020    14.2870     4.6250 HW1           1 RES     
    5308 HW2         12.4270    13.2540     5.0910 HW2           1 RES     
    5309 OW          22.1250     5.8070    11.9950 OW            1 RES     
    5310 HW1         21.1940     5.5070    12.2020 HW1           1 RES     
    5311 HW2         22.0940     6.5660    11.3450 HW2           1 RES     
    5312 OW          22.7270    -0.8360     7.5890 OW            1 RES     
    5313 HW1         21.8040    -0.4880     7.4310 HW1           1 RES     
    5314 HW2         22.7060    -1.8350     7.6270 HW2           1 RES     
    5315 OW           8.0230    19.9010     2.2390 OW            1 RES     
    5316 HW1          7.1360    19.8220     1.7860 HW1           1 RES     
    5317 HW2          8.2050    20.8600     2.4540 HW2           1 RES     
    5318 OW          -0.1660    13.6930     1.7970 OW            1 RES     
    5319 HW1         -1.1570    13.8200     1.7870 HW1           1 RES     
    5320 HW2          0.2850    14.5860     1.7990 HW2           1 RES     
    5321 OW          -2.8380    22.5360     7.6660 OW            1 RES     
    5322 HW1         -2.9980    23.5210     7.6170 HW1           1 RES     
    5323 HW2         -2.2120    22.2620     6.9360 HW2           1 RES     
    5324 OW          41.7460    16.6170     1.8970 OW            1 RES     
    5325 HW1         40.8110    16.2820     1.7860 HW1           1 RES     
    5326 HW2         41.7540    17.3770     2.5470 HW2           1 RES     
    5327 OW          39.6850    34.8280     6.1320 OW            1 RES     
    5328 HW1         39.6460    35.5260     5.4180 HW1           1 RES     
    5329 HW2         39.2210    35.1640     6.9520 HW2           1 RES     
    5330 OW          10.8260    -0.1880    12.5720 OW            1 RES     
    5331 HW1         11.4750     0.3750    13.0830 HW1           1 RES     
    5332 HW2         11.0720    -1.1520    12.6680 HW2           1 RES     
    5333 OW           5.9340    32.7500    11.1760 OW            1 RES     
    5334 HW1          6.8920    33.0010    11.0400 HW1           1 RES     
    5335 HW2          5.8020    31.7910    10.9280 HW2           1 RES     
    5336 OW          34.5220    23.3230    10.9370 OW            1 RES     
    5337 HW1         35.4330    23.3300    10.5270 HW1           1 RES     
    5338 HW2         33.8500    23.6270    10.2630 HW2           1 RES     
    5339 OW          21.4730    -0.4230    15.0250 OW            1 RES     
    5340 HW1         21.2160    -1.3870    14.9730 HW1           1 RES     
    5341 HW2         20.6520     0.1450    14.9530 HW2           1 RES     
    5342 OW           5.8180    13.1720    14.4300 OW            1 RES     
    5343 HW1          5.6240    12.2330    14.7110 HW1           1 RES     
    5344 HW2          4.9650    13.6920    14.3900 HW2           1 RES     
    5345 OW          20.8060    23.7460    11.4110 OW            1 RES     
    5346 HW1         19.9010    23.3640    11.5970 HW1           1 RES     
    5347 HW2         21.0840    23.5090    10.4800 HW2           1 RES     
    5348 OW          40.1120    22.0220    12.5640 OW            1 RES     
    5349 HW1         39.2680    21.4880    12.5180 HW1           1 RES     
    5350 HW2         40.8460    21.5260    12.0980 HW2           1 RES     
    5351 OW          -5.6990    36.4020    15.4110 OW            1 RES     
    5352 HW1         -5.8710    37.3860    15.3970 HW1           1 RES     
    5353 HW2         -4.7170    36.2330    15.3270 HW2           1 RES     
    5354 OW           2.7190    17.9700     3.8310 OW            1 RES     
    5355 HW1          2.8810    17.1340     4.3530 HW1           1 RES     
    5356 HW2          3.3810    18.0310     3.0830 HW2           1 RES     
    5357 OW          13.1930    35.0400    12.0800 OW            1 RES     
    5358 HW1         12.2360    34.8230    11.8920 HW1           1 RES     
    5359 HW2         13.5040    35.7510    11.4490 HW2           1 RES     
    5360 OW          26.0470    11.9050     2.0760 OW            1 RES     
    5361 HW1         25.0920    11.8480     1.7870 HW1           1 RES     
    5362 HW2         26.3790    12.8400     1.9510 HW2           1 RES     
    5363 OW          15.6170    35.3920    12.4370 OW            1 RES     
    5364 HW1         16.4910    35.1730    12.8690 HW1           1 RES     
    5365 HW2         15.4900    34.8170    11.6290 HW2           1 RES     
    5366 OW           5.2790    16.7710    17.1110 OW            1 RES     
    5367 HW1          5.5020    16.8420    16.1390 HW1           1 RES     
    5368 HW2          4.3630    17.1380    17.2710 HW2           1 RES     
    5369 OW           6.9460    15.3270    17.2360 OW            1 RES     
    5370 HW1          7.9390    15.2770    17.1380 HW1           1 RES     
    5371 HW2          6.5670    14.4020    17.2730 HW2           1 RES     
    5372 OW          -1.9300    38.0930    11.4440 OW            1 RES     
    5373 HW1         -1.3320    37.3280    11.6860 HW1           1 RES     
    5374 HW2         -1.3900    38.9330    11.3870 HW2           1 RES     
    5375 OW           0.5450    36.4470     2.8320 OW            1 RES     
    5376 HW1          1.3020    35.7950     2.8430 HW1           1 RES     
    5377 HW2         -0.3240    35.9510     2.8500 HW2           1 RES     
    5378 OW          21.4480     8.5880    11.9230 OW            1 RES     
    5379 HW1         20.5310     8.4450    11.5520 HW1           1 RES     
    5380 HW2         22.0880     8.7600    11.1740 HW2           1 RES     
    5381 OW           1.3190    23.1140    16.6790 OW            1 RES     
    5382 HW1          0.6650    22.5180    17.1440 HW1           1 RES     
    5383 HW2          1.5270    23.9000    17.2610 HW2           1 RES     
    5384 OW          17.2890     7.9000     3.9950 OW            1 RES     
    5385 HW1         16.5470     8.3290     3.4820 HW1           1 RES     
    5386 HW2         17.2240     6.9060     3.9070 HW2           1 RES     
    5387 OW          20.4500     1.1290     8.6420 OW            1 RES     
    5388 HW1         20.6640     1.4640     7.7250 HW1           1 RES     
    5389 HW2         20.0620     0.2100     8.5790 HW2           1 RES     
    5390 OW          40.0150    -2.6920    17.2310 OW            1 RES     
    5391 HW1         39.0210    -2.7940    17.2400 HW1           1 RES     
    5392 HW2         40.4440    -3.5950    17.2740 HW2           1 RES     
    5393 OW          42.6540    33.7660    12.2500 OW            1 RES     
    5394 HW1         42.9740    34.2190    13.0820 HW1           1 RES     
    5395 HW2         43.3630    33.8210    11.5460 HW2           1 RES     
    5396 OW          43.8540    34.7120     8.9950 OW            1 RES     
    5397 HW1         44.7600    34.7720     8.5770 HW1           1 RES     
    5398 HW2         43.3260    35.5290     8.7640 HW2           1 RES     
    5399 OW          33.3570     8.1450     6.6060 OW            1 RES     
    5400 HW1         34.3250     8.1500     6.8520 HW1           1 RES     
    5401 HW2         33.0530     9.0810     6.4280 HW2           1 RES     
    5402 OW          15.0040    29.7230     5.3850 OW            1 RES     
    5403 HW1         14.9280    29.1970     6.2310 HW1           1 RES     
    5404 HW2         14.2840    29.4420     4.7500 HW2           1 RES     
    5405 OW          29.2480    21.6380     3.6360 OW            1 RES     
    5406 HW1         29.0280    20.7870     3.1600 HW1           1 RES     
    5407 HW2         29.7600    22.2400     3.0230 HW2           1 RES     
    5408 OW           0.6910    41.6500     5.5660 OW            1 RES     
    5409 HW1         -0.0780    41.5940     4.9300 HW1           1 RES     
    5410 HW2          0.4440    41.2070     6.4280 HW2           1 RES     
    5411 OW          19.3040    32.6230    10.5990 OW            1 RES     
    5412 HW1         18.8830    32.2960     9.7540 HW1           1 RES     
    5413 HW2         20.2780    32.7900    10.4450 HW2           1 RES     
    5414 OW           3.2240    37.6420    14.7200 OW            1 RES     
    5415 HW1          4.0010    38.2340    14.5080 HW1           1 RES     
    5416 HW2          3.5540    36.7220    14.9360 HW2           1 RES     
    5417 OW          -6.7730    38.1590     5.2080 OW            1 RES     
    5418 HW1         -6.1800    38.1570     4.4040 HW1           1 RES     
    5419 HW2         -6.7260    39.0520     5.6550 HW2           1 RES     
    5420 OW          12.3730     2.8180     8.7300 OW            1 RES     
    5421 HW1         13.3370     2.9110     8.4800 HW1           1 RES     
    5422 HW2         12.1640     3.4360     9.4880 HW2           1 RES     
    5423 OW          44.7930    10.2460    11.7410 OW            1 RES     
    5424 HW1         43.7970    10.3230    11.7690 HW1           1 RES     
    5425 HW2         45.1090    10.3510    10.7980 HW2           1 RES     
    5426 OW          -1.9860    29.9290    10.9020 OW            1 RES     
    5427 HW1         -1.9710    30.7230    11.5080 HW1           1 RES     
    5428 HW2         -2.8150    29.3960    11.0700 HW2           1 RES     
    5429 OW          21.9200     7.5500     4.5460 OW            1 RES     
    5430 HW1         21.2720     6.7920     4.6090 HW1           1 RES     
    5431 HW2         22.6160     7.3390     3.8600 HW2           1 RES     
    5432 OW           7.3240    14.1890     3.7010 OW            1 RES     
    5433 HW1          6.8800    14.7930     3.0400 HW1           1 RES     
    5434 HW2          7.1220    13.2370     3.4730 HW2           1 RES     
    5435 OW          -0.0350    43.0990    10.7300 OW            1 RES     
    5436 HW1         -0.7140    42.5590    10.2330 HW1           1 RES     
    5437 HW2          0.7840    42.5460    10.8840 HW2           1 RES     
    5438 OW          29.5990     8.7990     7.7360 OW            1 RES     
    5439 HW1         30.2540     9.5530     7.7560 HW1           1 RES     
    5440 HW2         28.6690     9.1650     7.6950 HW2           1 RES     
    5441 OW           4.3040    22.0050    16.2740 OW            1 RES     
    5442 HW1          4.6590    21.5380    17.0830 HW1           1 RES     
    5443 HW2          3.3040    21.9700    16.2800 HW2           1 RES     
    5444 OW          20.3250    28.5280    13.8250 OW            1 RES     
    5445 HW1         20.1760    29.3180    13.2320 HW1           1 RES     
    5446 HW2         21.0790    28.7200    14.4540 HW2           1 RES     
    5447 OW          14.9910    -3.8190    11.8670 OW            1 RES     
    5448 HW1         14.9580    -4.2010    10.9440 HW1           1 RES     
    5449 HW2         15.6680    -4.3160    12.4100 HW2           1 RES     
    5450 OW          27.7450    21.4300    14.2840 OW            1 RES     
    5451 HW1         27.1580    22.2350    14.2070 HW1           1 RES     
    5452 HW2         27.2290    20.6770    14.6930 HW2           1 RES     
    5453 OW           3.5440     1.6180    12.7740 OW            1 RES     
    5454 HW1          3.5780     2.0920    11.8950 HW1           1 RES     
    5455 HW2          2.9150     0.8430    12.7120 HW2           1 RES     
    5456 OW          13.6450    -1.9400    12.2900 OW            1 RES     
    5457 HW1         14.5930    -1.7680    12.5560 HW1           1 RES     
    5458 HW2         13.0680    -1.9650    13.1070 HW2           1 RES     
    5459 OW          23.4780    31.3790    10.1540 OW            1 RES     
    5460 HW1         24.1260    32.0590    10.4950 HW1           1 RES     
    5461 HW2         23.1690    31.6400     9.2390 HW2           1 RES     
    5462 OW          23.7340    23.8870    13.6760 OW            1 RES     
    5463 HW1         23.4750    24.6050    14.3220 HW1           1 RES     
    5464 HW2         24.6130    23.4940    13.9480 HW2           1 RES     
    5465 OW          16.0900    34.3430     4.1040 OW            1 RES     
    5466 HW1         16.0180    33.8640     4.9780 HW1           1 RES     
    5467 HW2         15.2160    34.7810     3.8910 HW2           1 RES     
    5468 OW          11.8270    37.8440    17.2710 OW            1 RES     
    5469 HW1         12.3280    36.9870    17.1540 HW1           1 RES     
    5470 HW2         11.4680    38.1440    16.3870 HW2           1 RES     
    5471 OW          43.1370     6.2590     4.4630 OW            1 RES     
    5472 HW1         43.1370     5.7970     5.3490 HW1           1 RES     
    5473 HW2         43.9070     6.8960     4.4180 HW2           1 RES     
    5474 OW           4.9900     4.6430    17.2740 OW            1 RES     
    5475 HW1          5.1260     3.6530    17.2400 HW1           1 RES     
    5476 HW2          5.8690     5.1060    17.1570 HW2           1 RES     
    5477 OW          43.9070    27.0780    16.8380 OW            1 RES     
    5478 HW1         43.9760    26.7330    15.9030 HW1           1 RES     
    5479 HW2         42.9600    27.0080    17.1510 HW2           1 RES     
    5480 OW           4.7300    38.3960     9.8840 OW            1 RES     
    5481 HW1          4.0210    37.6920     9.8440 HW1           1 RES     
    5482 HW2          5.6310    37.9640     9.8880 HW2           1 RES     
    5483 OW          10.3710     6.2880     2.3260 OW            1 RES     
    5484 HW1         11.1680     5.9510     1.8260 HW1           1 RES     
    5485 HW2          9.9130     6.9950     1.7860 HW2           1 RES     
    5486 OW          22.8160     0.8200    12.6590 OW            1 RES     
    5487 HW1         22.6610     0.4250    11.7540 HW1           1 RES     
    5488 HW2         22.1490     1.5460    12.8250 HW2           1 RES     
    5489 OW           1.3900    16.0780    16.7110 OW            1 RES     
    5490 HW1          2.2710    16.4360    17.0190 HW1           1 RES     
    5491 HW2          1.4200    15.9240    15.7230 HW2           1 RES     
    5492 OW          29.0820     8.2460    13.7510 OW            1 RES     
    5493 HW1         29.1980     7.2550    13.8010 HW1           1 RES     
    5494 HW2         28.1950     8.4580    13.3390 HW2           1 RES     
    5495 OW          10.1990    31.7670     6.4480 OW            1 RES     
    5496 HW1          9.4680    31.1220     6.6680 HW1           1 RES     
    5497 HW2          9.9700    32.6700     6.8130 HW2           1 RES     
    5498 OW          13.1520     0.3040     8.4200 OW            1 RES     
    5499 HW1         13.3790     0.5810     7.4860 HW1           1 RES     
    5500 HW2         12.2290     0.6150     8.6450 HW2           1 RES     
    5501 OW          41.5710    -1.1490     8.5910 OW            1 RES     
    5502 HW1         42.5590    -1.1370     8.4470 HW1           1 RES     
    5503 HW2         41.2430    -0.2150     8.7360 HW2           1 RES     
    5504 OW          -3.0330    21.5950     3.6030 OW            1 RES     
    5505 HW1         -2.8020    22.5210     3.3080 HW1           1 RES     
    5506 HW2         -3.9890    21.5670     3.8970 HW2           1 RES     
    5507 OW          30.1730    35.1070    10.1220 OW            1 RES     
    5508 HW1         31.0390    35.4850    10.4470 HW1           1 RES     
    5509 HW2         30.0780    34.1650    10.4450 HW2           1 RES     
    5510 OW          11.5960    40.7740     4.4240 OW            1 RES     
    5511 HW1         10.7670    40.2770     4.6800 HW1           1 RES     
    5512 HW2         11.8360    41.4190     5.1500 HW2           1 RES     
    5513 OW          26.7020    19.6410     8.4670 OW            1 RES     
    5514 HW1         26.9070    19.4020     9.4150 HW1           1 RES     
    5515 HW2         25.8020    20.0740     8.4190 HW2           1 RES     
    5516 OW           0.0720    13.3960     4.3280 OW            1 RES     
    5517 HW1         -0.4540    12.6790     3.8720 HW1           1 RES     
    5518 HW2          0.3220    13.0940     5.2480 HW2           1 RES     
    5519 OW          25.6250    20.4800     5.0320 OW            1 RES     
    5520 HW1         24.8130    21.0630     5.0210 HW1           1 RES     
    5521 HW2         25.7460    20.0940     5.9460 HW2           1 RES     
    5522 OW          39.5550    27.6040    11.8640 OW            1 RES     
    5523 HW1         40.3300    26.9730    11.8810 HW1           1 RES     
    5524 HW2         38.7010    27.0840    11.8970 HW2           1 RES     
    5525 OW          -6.2780    32.8090    10.9060 OW            1 RES     
    5526 HW1         -6.2210    33.7930    10.7430 HW1           1 RES     
    5527 HW2         -6.2090    32.3210    10.0360 HW2           1 RES     
    5528 OW          -0.2470    15.6410     8.7350 OW            1 RES     
    5529 HW1          0.7240    15.8690     8.6780 HW1           1 RES     
    5530 HW2         -0.3550    14.6470     8.7710 HW2           1 RES     
    5531 OW           3.5520    -1.9560    11.6660 OW            1 RES     
    5532 HW1          2.9570    -1.2670    12.0780 HW1           1 RES     
    5533 HW2          4.3800    -1.5180    11.3170 HW2           1 RES     
    5534 OW          44.5750     6.4950     7.8670 OW            1 RES     
    5535 HW1         44.8410     6.3900     6.9090 HW1           1 RES     
    5536 HW2         43.6000     6.2960     7.9660 HW2           1 RES     
    5537 OW          40.0360    20.7330    15.6950 OW            1 RES     
    5538 HW1         39.1570    21.1430    15.9380 HW1           1 RES     
    5539 HW2         40.7790    21.2920    16.0630 HW2           1 RES     
    5540 OW          34.7750    30.4210    11.6170 OW            1 RES     
    5541 HW1         34.6740    30.5600    12.6020 HW1           1 RES     
    5542 HW2         35.5330    30.9780    11.2770 HW2           1 RES     
    5543 OW          -0.2470    11.8490     7.2540 OW            1 RES     
    5544 HW1         -0.0910    12.4580     8.0310 HW1           1 RES     
    5545 HW2         -0.6570    10.9950     7.5770 HW2           1 RES     
    5546 OW          -2.4880    32.7140     2.2520 OW            1 RES     
    5547 HW1         -1.9540    32.4790     3.0640 HW1           1 RES     
    5548 HW2         -2.7730    31.8760     1.7860 HW2           1 RES     
    5549 OW          33.8800    28.7100    15.2970 OW            1 RES     
    5550 HW1         34.2580    28.9040    16.2010 HW1           1 RES     
    5551 HW2         34.2240    29.3810    14.6400 HW2           1 RES     
    5552 OW          22.3090    21.2590    10.0990 OW            1 RES     
    5553 HW1         21.4790    21.3510    10.6490 HW1           1 RES     
    5554 HW2         22.2940    21.9300     9.3580 HW2           1 RES     
    5555 OW          25.5700    13.4750     4.3300 OW            1 RES     
    5556 HW1         25.8390    12.5250     4.1770 HW1           1 RES     
    5557 HW2         25.7510    13.7230     5.2820 HW2           1 RES     
    5558 OW          33.8220     8.5120    16.8310 OW            1 RES     
    5559 HW1         32.9700     8.1120    17.1670 HW1           1 RES     
    5560 HW2         34.5990     8.0620    17.2720 HW2           1 RES     
    5561 OW          -3.8300    33.6500    15.2530 OW            1 RES     
    5562 HW1         -4.7180    33.8300    14.8320 HW1           1 RES     
    5563 HW2         -3.9040    32.8660    15.8680 HW2           1 RES     
    5564 OW          44.0280    12.0660     6.2150 OW            1 RES     
    5565 HW1         43.9080    12.6470     5.4120 HW1           1 RES     
    5566 HW2         44.0050    11.1050     5.9380 HW2           1 RES     
    5567 OW          15.6740    -4.3160     2.8120 OW            1 RES     
    5568 HW1         15.6060    -4.0540     1.8500 HW1           1 RES     
    5569 HW2         16.4760    -3.8800     3.2210 HW2           1 RES     
    5570 OW          19.0720    -0.2850     5.7330 OW            1 RES     
    5571 HW1         18.4030    -1.0170     5.8580 HW1           1 RES     
    5572 HW2         18.6100     0.5360     5.3960 HW2           1 RES     
    5573 OW          -1.9700    31.5010    16.7430 OW            1 RES     
    5574 HW1         -0.9920    31.3880    16.9160 HW1           1 RES     
    5575 HW2         -2.3160    32.2750    17.2740 HW2           1 RES     
    5576 OW          38.0230     0.2860     4.1460 OW            1 RES     
    5577 HW1         38.7600     0.6950     3.6090 HW1           1 RES     
    5578 HW2         38.0240    -0.7050     4.0160 HW2           1 RES     
    5579 OW           3.9070    12.3910    11.4810 OW            1 RES     
    5580 HW1          4.7670    12.8600    11.6790 HW1           1 RES     
    5581 HW2          3.2860    12.4910    12.2580 HW2           1 RES     
    5582 OW          -5.2860     0.5290    10.5010 OW            1 RES     
    5583 HW1         -4.3590     0.4140    10.8570 HW1           1 RES     
    5584 HW2         -5.2480     0.9860     9.6120 HW2           1 RES     
    5585 OW           2.7790    27.6190    15.6900 OW            1 RES     
    5586 HW1          1.7880    27.5650    15.5730 HW1           1 RES     
    5587 HW2          3.2070    26.8050    15.2950 HW2           1 RES     
    5588 OW          36.6710    35.2110    14.1800 OW            1 RES     
    5589 HW1         36.8130    36.1400    13.8410 HW1           1 RES     
    5590 HW2         37.5420    34.8360    14.5000 HW2           1 RES     
    5591 OW          37.7040    20.2850     5.6030 OW            1 RES     
    5592 HW1         37.5390    19.3110     5.7530 HW1           1 RES     
    5593 HW2         38.4230    20.6010     6.2220 HW2           1 RES     
    5594 OW          -3.3000    37.7860     5.8920 OW            1 RES     
    5595 HW1         -3.4480    36.8070     5.7520 HW1           1 RES     
    5596 HW2         -2.3370    37.9510     6.1020 HW2           1 RES     
    5597 OW          30.1880    42.2110     7.0130 OW            1 RES     
    5598 HW1         29.1920    42.2830     7.0640 HW1           1 RES     
    5599 HW2         30.4470    41.2530     6.8860 HW2           1 RES     
    5600 OW          20.1840    34.7370     3.8120 OW            1 RES     
    5601 HW1         19.9050    35.3820     4.5230 HW1           1 RES     
    5602 HW2         20.5230    33.8980     4.2360 HW2           1 RES     
    5603 OW          36.8060    15.1680     3.9950 OW            1 RES     
    5604 HW1         36.1410    14.5680     4.4390 HW1           1 RES     
    5605 HW2         37.3600    14.6360     3.3550 HW2           1 RES     
    5606 OW          15.7820    28.7390     9.2820 OW            1 RES     
    5607 HW1         16.0200    28.1330    10.0400 HW1           1 RES     
    5608 HW2         14.8320    28.5810     9.0120 HW2           1 RES     
    5609 OW           2.4050    42.8980    17.0410 OW            1 RES     
    5610 HW1          2.3590    43.3140    16.1330 HW1           1 RES     
    5611 HW2          1.5150    42.5070    17.2740 HW2           1 RES     
    5612 OW          34.6640    26.5280    11.2720 OW            1 RES     
    5613 HW1         35.6610    26.5730    11.3390 HW1           1 RES     
    5614 HW2         34.3590    25.5940    11.4560 HW2           1 RES     
    5615 OW           5.2970     5.7550     4.1220 OW            1 RES     
    5616 HW1          5.9340     5.0510     4.4340 HW1           1 RES     
    5617 HW2          4.5250     5.8110     4.7550 HW2           1 RES     
    5618 OW          34.8030     8.9160     3.8770 OW            1 RES     
    5619 HW1         34.2330     9.1080     3.0790 HW1           1 RES     
    5620 HW2         34.3830     9.3170     4.6910 HW2           1 RES     
    5621 OW          40.7130     8.1450     8.5990 OW            1 RES     
    5622 HW1         40.5340     9.0740     8.2760 HW1           1 RES     
    5623 HW2         41.6970     7.9690     8.5810 HW2           1 RES     
    5624 OW          -6.4660    28.2550    13.8690 OW            1 RES     
    5625 HW1         -5.6220    27.8030    14.1540 HW1           1 RES     
    5626 HW2         -6.7730    27.8730    12.9980 HW2           1 RES     
    5627 OW          28.4270     4.8460     8.0590 OW            1 RES     
    5628 HW1         27.9820     3.9510     8.0580 HW1           1 RES     
    5629 HW2         27.7310     5.5650     8.0590 HW2           1 RES     
    5630 OW          -6.2380    17.5000    12.2710 OW            1 RES     
    5631 HW1         -6.1720    18.4930    12.1820 HW1           1 RES     
    5632 HW2         -5.3200    17.1100    12.3530 HW2           1 RES     
    5633 OW          12.8680     9.9610     4.2260 OW            1 RES     
    5634 HW1         12.2270     9.6380     3.5310 HW1           1 RES     
    5635 HW2         13.4960     9.2220     4.4720 HW2           1 RES     
    5636 OW          21.5150    36.9590     8.3730 OW            1 RES     
    5637 HW1         22.0130    36.1180     8.5810 HW1           1 RES     
    5638 HW2         22.1640    37.6790     8.1250 HW2           1 RES     
    5639 OW          44.7870    42.7970    11.4580 OW            1 RES     
    5640 HW1         44.7450    41.8520    11.1350 HW1           1 RES     
    5641 HW2         43.8620    43.1280    11.6440 HW2           1 RES     
    5642 OW          16.6890    22.7670     4.7300 OW            1 RES     
    5643 HW1         16.8660    23.6140     4.2300 HW1           1 RES     
    5644 HW2         16.9220    21.9830     4.1540 HW2           1 RES     
    5645 OW          18.5280     1.2040    12.4360 OW            1 RES     
    5646 HW1         19.1420     1.7620    12.9940 HW1           1 RES     
    5647 HW2         18.2250     0.4110    12.9640 HW2           1 RES     
    5648 OW           3.5290     3.9600     9.3850 OW            1 RES     
    5649 HW1          4.4120     3.9920     8.9180 HW1           1 RES     
    5650 HW2          3.4590     3.1100     9.9080 HW2           1 RES     
    5651 OW          20.4680    34.9330     6.6020 OW            1 RES     
    5652 HW1         21.4500    34.9920     6.7740 HW1           1 RES     
    5653 HW2         20.2180    33.9820     6.4140 HW2           1 RES     
    5654 OW          13.1370    27.0160    10.4990 OW            1 RES     
    5655 HW1         14.1030    27.0680    10.7510 HW1           1 RES     
    5656 HW2         12.8550    27.8760    10.0750 HW2           1 RES     
    5657 OW           4.1230    28.0790     3.2220 OW            1 RES     
    5658 HW1          5.1190    28.0940     3.1360 HW1           1 RES     
    5659 HW2          3.7290    28.8020     2.6550 HW2           1 RES     
    5660 OW          37.9970    26.1960     6.8510 OW            1 RES     
    5661 HW1         37.1750    25.7860     6.4590 HW1           1 RES     
    5662 HW2         37.8700    27.1850     6.9350 HW2           1 RES     
    5663 OW          -1.9840     4.4200     3.1050 OW            1 RES     
    5664 HW1         -1.7820     3.9330     3.9540 HW1           1 RES     
    5665 HW2         -1.3180     4.1610     2.4050 HW2           1 RES     
    5666 OW          44.6830    -1.3020    12.7800 OW            1 RES     
    5667 HW1         43.6850    -1.3480    12.7820 HW1           1 RES     
    5668 HW2         45.0610    -2.2280    12.8040 HW2           1 RES     
    5669 OW          29.4630    15.6770    14.3180 OW            1 RES     
    5670 HW1         29.7570    15.2850    15.1880 HW1           1 RES     
    5671 HW2         28.4740    15.8240    14.3350 HW2           1 RES     
    5672 OW          32.7030    30.6340     9.6420 OW            1 RES     
    5673 HW1         33.2810    29.9310     9.2290 HW1           1 RES     
    5674 HW2         32.1550    30.2280    10.3740 HW2           1 RES     
    5675 OW          37.8500    11.6340     2.8850 OW            1 RES     
    5676 HW1         38.0270    12.6130     2.7980 HW1           1 RES     
    5677 HW2         36.9780    11.4920     3.3550 HW2           1 RES     
    5678 OW           8.1900    36.0000     5.8670 OW            1 RES     
    5679 HW1          8.6710    35.5340     6.6090 HW1           1 RES     
    5680 HW2          7.3100    36.3390     6.2000 HW2           1 RES     
    5681 OW          28.0640    22.3290     9.2160 OW            1 RES     
    5682 HW1         29.0420    22.1290     9.1530 HW1           1 RES     
    5683 HW2         27.8190    23.0150     8.5310 HW2           1 RES     
    5684 OW          10.7610    25.0330    15.2880 OW            1 RES     
    5685 HW1         11.3300    25.6820    14.7840 HW1           1 RES     
    5686 HW2          9.8040    25.3180    15.2350 HW2           1 RES     
    5687 OW          24.3980    19.8700    16.2310 OW            1 RES     
    5688 HW1         24.4840    20.2520    17.1510 HW1           1 RES     
    5689 HW2         25.2910    19.5480    15.9180 HW2           1 RES     
    5690 OW          29.1690    38.6060    13.3890 OW            1 RES     
    5691 HW1         28.8830    39.5370    13.1660 HW1           1 RES     
    5692 HW2         28.7140    37.9610    12.7740 HW2           1 RES     
    5693 OW           2.2250    14.1590     5.6070 OW            1 RES     
    5694 HW1          2.7820    13.7280     4.8980 HW1           1 RES     
    5695 HW2          2.8200    14.5170     6.3270 HW2           1 RES     
    5696 OW          37.3780     0.2670    11.1450 OW            1 RES     
    5697 HW1         37.4520    -0.4920    10.5000 HW1           1 RES     
    5698 HW2         36.7470     0.9530    10.7830 HW2           1 RES     
    5699 OW          16.5910    -2.8200    10.4010 OW            1 RES     
    5700 HW1         15.7960    -2.2200    10.4840 HW1           1 RES     
    5701 HW2         16.4920    -3.3950     9.5890 HW2           1 RES     
    5702 OW           1.8710    17.3150    13.5340 OW            1 RES     
    5703 HW1          2.1830    18.1860    13.1560 HW1           1 RES     
    5704 HW2          0.9160    17.1630    13.2800 HW2           1 RES     
    5705 OW          31.5660    37.4970     4.3070 OW            1 RES     
    5706 HW1         32.2780    38.0410     3.8630 HW1           1 RES     
    5707 HW2         31.4580    36.6290     3.8220 HW2           1 RES     
    5708 OW          28.6920    14.2940     7.9270 OW            1 RES     
    5709 HW1         28.1160    13.7340     7.3330 HW1           1 RES     
    5710 HW2         29.4770    14.6330     7.4080 HW2           1 RES     
    5711 OW          45.1090    14.2710    13.3620 OW            1 RES     
    5712 HW1         44.3200    14.8150    13.6440 HW1           1 RES     
    5713 HW2         44.8000    13.3720    13.0510 HW2           1 RES     
    5714 OW          36.7250    38.8150    16.7370 OW            1 RES     
    5715 HW1         36.1320    38.2910    16.1280 HW1           1 RES     
    5716 HW2         37.2900    38.1880    17.2740 HW2           1 RES     
    5717 OW          16.6190    29.3130    14.4200 OW            1 RES     
    5718 HW1         16.1390    29.9340    15.0390 HW1           1 RES     
    5719 HW2         16.0770    28.4830    14.2930 HW2           1 RES     
    5720 OW          -0.5990    15.3660    10.8890 OW            1 RES     
    5721 HW1          0.3990    15.3670    10.8560 HW1           1 RES     
    5722 HW2         -0.9040    15.6300    11.8040 HW2           1 RES     
    5723 OW          11.7500     1.3870    11.1380 OW            1 RES     
    5724 HW1         11.9960     0.4690    10.8280 HW1           1 RES     
    5725 HW2         10.9500     1.7070    10.6310 HW2           1 RES     
    5726 OW          40.2660    13.2840     5.2560 OW            1 RES     
    5727 HW1         41.1430    12.8320     5.4150 HW1           1 RES     
    5728 HW2         40.0620    13.2840     4.2770 HW2           1 RES     
    5729 OW          43.5620     0.0950    15.5850 OW            1 RES     
    5730 HW1         42.6410     0.2380    15.9460 HW1           1 RES     
    5731 HW2         43.5070    -0.1460    14.6160 HW2           1 RES     
    5732 OW          -3.9210    40.2140     5.9130 OW            1 RES     
    5733 HW1         -4.6250    39.5300     6.1000 HW1           1 RES     
    5734 HW2         -4.3530    41.0950     5.7210 HW2           1 RES     
    5735 OW          -4.3490    16.3200     2.0380 OW            1 RES     
    5736 HW1         -4.9920    15.5980     1.7860 HW1           1 RES     
    5737 HW2         -4.2140    16.3160     3.0290 HW2           1 RES     
    5738 OW          43.7320    40.1600    16.5250 OW            1 RES     
    5739 HW1         43.0770    40.7950    16.1170 HW1           1 RES     
    5740 HW2         44.2110    39.6630    15.8010 HW2           1 RES     
    5741 OW          -1.0040    23.9280    13.4770 OW            1 RES     
    5742 HW1         -0.0170    24.0870    13.4510 HW1           1 RES     
    5743 HW2         -1.4810    24.7400    13.1410 HW2           1 RES     
    5744 OW          36.2970     8.2760     2.1200 OW            1 RES     
    5745 HW1         35.5260     7.6420     2.0700 HW1           1 RES     
    5746 HW2         36.0120     9.1750     1.7860 HW2           1 RES     
    5747 OW          42.2130    38.3040    13.5580 OW            1 RES     
    5748 HW1         41.9720    38.9840    12.8670 HW1           1 RES     
    5749 HW2         41.3860    38.0090    14.0380 HW2           1 RES     
    5750 OW          14.4640    16.9740     5.5270 OW            1 RES     
    5751 HW1         15.1890    17.2010     6.1760 HW1           1 RES     
    5752 HW2         14.7160    16.1500     5.0190 HW2           1 RES     
    5753 OW          24.2090    15.4520    12.3780 OW            1 RES     
    5754 HW1         23.7470    14.6760    11.9500 HW1           1 RES     
    5755 HW2         25.1340    15.1830    12.6490 HW2           1 RES     
    5756 OW          15.6780    25.3700     4.8180 OW            1 RES     
    5757 HW1         14.6920    25.4100     4.9730 HW1           1 RES     
    5758 HW2         15.9100    25.9050     4.0050 HW2           1 RES     
    5759 OW          25.0610    20.6230     2.4710 OW            1 RES     
    5760 HW1         25.7150    21.2030     2.9560 HW1           1 RES     
    5761 HW2         24.2630    21.1660     2.2090 HW2           1 RES     
    5762 OW           5.3060    42.7350    16.9210 OW            1 RES     
    5763 HW1          5.9960    43.3140    16.4890 HW1           1 RES     
    5764 HW2          4.5610    43.3050    17.2670 HW2           1 RES     
    5765 OW           4.1830     0.3450     9.5630 OW            1 RES     
    5766 HW1          3.4930     0.8680    10.0620 HW1           1 RES     
    5767 HW2          3.8370    -0.5750     9.3780 HW2           1 RES     
    5768 OW          20.3730    -3.1060     8.2790 OW            1 RES     
    5769 HW1         20.8030    -3.7090     7.6080 HW1           1 RES     
    5770 HW2         20.4720    -2.1550     7.9840 HW2           1 RES     
    5771 OW          -2.3050    18.4990    15.2070 OW            1 RES     
    5772 HW1         -2.1650    17.9630    14.3750 HW1           1 RES     
    5773 HW2         -2.0330    19.4470    15.0430 HW2           1 RES     
    5774 OW          32.0420    32.8850     4.6150 OW            1 RES     
    5775 HW1         31.7720    31.9590     4.8740 HW1           1 RES     
    5776 HW2         33.0390    32.9600     4.6340 HW2           1 RES     
    5777 OW          31.9010    17.8360    12.2410 OW            1 RES     
    5778 HW1         31.9370    17.9130    13.2360 HW1           1 RES     
    5779 HW2         31.6750    16.8950    11.9870 HW2           1 RES     
    5780 OW          20.6340     4.1850    14.3680 OW            1 RES     
    5781 HW1         21.2690     4.9560    14.3300 HW1           1 RES     
    5782 HW2         20.7910     3.5840    13.5840 HW2           1 RES     
    5783 OW          33.9970    37.4070     9.0560 OW            1 RES     
    5784 HW1         33.1880    36.8200     9.0330 HW1           1 RES     
    5785 HW2         34.8030    36.8730     8.8030 HW2           1 RES     
    5786 OW          32.3630    26.6600     3.5640 OW            1 RES     
    5787 HW1         32.5670    27.6370     3.6160 HW1           1 RES     
    5788 HW2         33.1790    26.1630     3.2690 HW2           1 RES     
    5789 OW           3.3100     8.7230    13.7020 OW            1 RES     
    5790 HW1          3.1900     9.1090    12.7880 HW1           1 RES     
    5791 HW2          4.2310     8.9300    14.0340 HW2           1 RES     
    5792 OW           0.5460    40.7750    12.4780 OW            1 RES     
    5793 HW1         -0.0210    40.6320    11.6680 HW1           1 RES     
    5794 HW2          1.4940    40.9310    12.1990 HW2           1 RES     
    5795 OW          33.5020    25.2660     5.6480 OW            1 RES     
    5796 HW1         33.5780    24.2980     5.4130 HW1           1 RES     
    5797 HW2         32.5680    25.5790     5.4770 HW2           1 RES     
    5798 OW           4.3130    25.9700    11.5010 OW            1 RES     
    5799 HW1          3.6610    25.6660    12.1940 HW1           1 RES     
    5800 HW2          3.9900    26.8230    11.0890 HW2           1 RES     
    5801 OW          -2.1190    -3.2710     2.1450 OW            1 RES     
    5802 HW1         -2.7760    -2.5730     1.8630 HW1           1 RES     
    5803 HW2         -2.5060    -3.8120     2.8920 HW2           1 RES     
    5804 OW           6.0010    40.4390    12.2280 OW            1 RES     
    5805 HW1          6.7770    40.6540    11.6370 HW1           1 RES     
    5806 HW2          5.4500    39.7190    11.8060 HW2           1 RES     
    5807 OW          43.5050    24.8780    12.9860 OW            1 RES     
    5808 HW1         44.3310    25.4370    13.0500 HW1           1 RES     
    5809 HW2         42.7030    25.4720    12.9290 HW2           1 RES     
    5810 OW          10.9160    15.1180    13.5180 OW            1 RES     
    5811 HW1          9.9300    15.0090    13.6400 HW1           1 RES     
    5812 HW2         11.1450    16.0920    13.5040 HW2           1 RES     
    5813 OW          18.9720    29.9620    16.2310 OW            1 RES     
    5814 HW1         18.0110    30.2260    16.1580 HW1           1 RES     
    5815 HW2         19.0370    28.9740    16.3710 HW2           1 RES     
    5816 OW          32.9880    24.4130    13.0950 OW            1 RES     
    5817 HW1         32.2650    24.6920    13.7260 HW1           1 RES     
    5818 HW2         32.9210    23.4290    12.9240 HW2           1 RES     
    5819 OW          22.3620    38.1580    13.1520 OW            1 RES     
    5820 HW1         22.3040    39.1510    13.0490 HW1           1 RES     
    5821 HW2         23.3190    37.8730    13.1030 HW2           1 RES     
    5822 OW          18.4630    37.3560     5.2810 OW            1 RES     
    5823 HW1         19.2710    37.7110     4.8120 HW1           1 RES     
    5824 HW2         17.8660    38.1150     5.5410 HW2           1 RES     
    5825 OW          32.3160    26.5640    16.4010 OW            1 RES     
    5826 HW1         32.2810    27.5580    16.4960 HW1           1 RES     
    5827 HW2         33.2090    26.2940    16.0390 HW2           1 RES     
    5828 OW          28.5470    32.1120    13.7170 OW            1 RES     
    5829 HW1         29.4980    31.9210    13.4790 HW1           1 RES     
    5830 HW2         27.9610    31.3830    13.3610 HW2           1 RES     
    5831 OW          10.6450    26.4230     6.7390 OW            1 RES     
    5832 HW1         10.8910    27.0650     6.0130 HW1           1 RES     
    5833 HW2         11.4140    25.8080     6.9140 HW2           1 RES     
    5834 OW          14.6420     9.8720    10.1250 OW            1 RES     
    5835 HW1         15.2620     9.0900    10.1820 HW1           1 RES     
    5836 HW2         13.6980     9.5580    10.2290 HW2           1 RES     
    5837 OW          -0.7950    31.2940     5.3870 OW            1 RES     
    5838 HW1         -1.6170    30.7730     5.1570 HW1           1 RES     
    5839 HW2         -0.7200    31.3760     6.3810 HW2           1 RES     
    5840 OW          24.8410    40.2320    10.1460 OW            1 RES     
    5841 HW1         25.4860    39.7200     9.5800 HW1           1 RES     
    5842 HW2         24.1700    40.6870     9.5600 HW2           1 RES     
    5843 OW           5.5350    12.6750     2.0560 OW            1 RES     
    5844 HW1          4.7360    12.1390     1.7860 HW1           1 RES     
    5845 HW2          5.3220    13.6500     1.9880 HW2           1 RES     
    5846 OW           3.8270     4.0660    13.7550 OW            1 RES     
    5847 HW1          2.9540     4.2100    14.2200 HW1           1 RES     
    5848 HW2          4.0640     4.8820    13.2290 HW2           1 RES     
    5849 OW          35.5060    34.3890    17.0460 OW            1 RES     
    5850 HW1         34.6730    33.9420    16.7210 HW1           1 RES     
    5851 HW2         35.3250    35.3600    17.2020 HW2           1 RES     
    5852 OW           8.8050    12.3530    10.6380 OW            1 RES     
    5853 HW1          7.8530    12.0490    10.6490 HW1           1 RES     
    5854 HW2          9.4100    11.5560    10.6160 HW2           1 RES     
    5855 OW          -2.1860    29.2440    17.0930 OW            1 RES     
    5856 HW1         -3.0710    29.6710    17.2740 HW1           1 RES     
    5857 HW2         -2.2500    28.2590    17.2590 HW2           1 RES     
    5858 OW          36.7770    23.2100    16.7740 OW            1 RES     
    5859 HW1         37.6430    22.7120    16.7550 HW1           1 RES     
    5860 HW2         36.0550    22.6410    16.3780 HW2           1 RES     
    5861 OW          -2.9330    12.4770     6.1810 OW            1 RES     
    5862 HW1         -3.6540    13.1600     6.0720 HW1           1 RES     
    5863 HW2         -3.2030    11.8160     6.8820 HW2           1 RES     
    5864 OW          28.8970    19.4360     8.2930 OW            1 RES     
    5865 HW1         28.5660    19.2050     7.3790 HW1           1 RES     
    5866 HW2         29.0950    18.5960     8.7980 HW2           1 RES     
    5867 OW          16.2270     9.9700    13.2100 OW            1 RES     
    5868 HW1         16.7000    10.8350    13.0500 HW1           1 RES     
    5869 HW2         15.2470    10.0900    13.0530 HW2           1 RES     
    5870 OW          33.1430     4.8100     6.7960 OW            1 RES     
    5871 HW1         33.4390     5.7600     6.7100 HW1           1 RES     
    5872 HW2         33.6970     4.3490     7.4900 HW2           1 RES     
    5873 OW          41.2660    19.4530    12.8450 OW            1 RES     
    5874 HW1         41.9350    19.8080    13.4970 HW1           1 RES     
    5875 HW2         40.3430    19.6680    13.1620 HW2           1 RES     
    5876 OW          34.4370    35.2230    12.9110 OW            1 RES     
    5877 HW1         34.1870    35.1290    13.8740 HW1           1 RES     
    5878 HW2         34.8680    36.1140    12.7640 HW2           1 RES     
    5879 OW          31.0190     7.3250     8.5440 OW            1 RES     
    5880 HW1         31.8930     7.6270     8.1660 HW1           1 RES     
    5881 HW2         31.1250     6.4140     8.9430 HW2           1 RES     
    5882 OW          43.5080    18.7510     3.4410 OW            1 RES     
    5883 HW1         42.6590    19.2790     3.4440 HW1           1 RES     
    5884 HW2         44.2890    19.3740     3.4540 HW2           1 RES     
    5885 OW           5.6170    16.6150     9.9800 OW            1 RES     
    5886 HW1          5.6320    15.7120    10.4090 HW1           1 RES     
    5887 HW2          4.9300    16.6270     9.2530 HW2           1 RES     
    5888 OW          33.2710     6.0620     9.2740 OW            1 RES     
    5889 HW1         32.9980     5.1140     9.4310 HW1           1 RES     
    5890 HW2         34.1360     6.0820     8.7720 HW2           1 RES     
    5891 OW          -6.7720    12.8970     6.2350 OW            1 RES     
    5892 HW1         -5.8440    13.2680     6.2540 HW1           1 RES     
    5893 HW2         -6.7490    11.9240     6.4660 HW2           1 RES     
    5894 OW          30.1880    36.0870     5.7960 OW            1 RES     
    5895 HW1         29.2940    35.7700     6.1090 HW1           1 RES     
    5896 HW2         30.3130    37.0450     6.0580 HW2           1 RES     
    5897 OW           2.5610    14.8420     2.0790 OW            1 RES     
    5898 HW1          2.5870    15.8410     2.0870 HW1           1 RES     
    5899 HW2          2.1660    14.5110     2.9360 HW2           1 RES     
    5900 OW          45.1090    17.0290    11.8520 OW            1 RES     
    5901 HW1         44.9670    16.0440    11.9370 HW1           1 RES     
    5902 HW2         44.2250    17.4870    11.7570 HW2           1 RES     
    5903 OW          33.0570    33.5780     9.4060 OW            1 RES     
    5904 HW1         32.4220    32.8070     9.4310 HW1           1 RES     
    5905 HW2         33.9920    33.2440     9.5340 HW2           1 RES     
    5906 OW          17.4850    19.2730    12.7530 OW            1 RES     
    5907 HW1         17.2030    18.3690    13.0740 HW1           1 RES     
    5908 HW2         17.3730    19.3240    11.7610 HW2           1 RES     
    5909 OW           8.1990     4.3990     7.7190 OW            1 RES     
    5910 HW1          8.3450     5.3540     7.4630 HW1           1 RES     
    5911 HW2          8.0180     3.8570     6.8990 HW2           1 RES     
    5912 OW           7.2820    28.8350    16.9160 OW            1 RES     
    5913 HW1          7.8280    29.6430    17.1370 HW1           1 RES     
    5914 HW2          6.4250    29.1190    16.4860 HW2           1 RES     
    5915 OW          18.2700     5.7710     8.4990 OW            1 RES     
    5916 HW1         17.8120     6.6340     8.7060 HW1           1 RES     
    5917 HW2         17.5890     5.0430     8.4160 HW2           1 RES     
    5918 OW          -3.3450     3.5600    15.0200 OW            1 RES     
    5919 HW1         -2.6490     2.8580    14.8760 HW1           1 RES     
    5920 HW2         -3.6690     3.5210    15.9660 HW2           1 RES     
    5921 OW          34.2100    34.2840     2.2510 OW            1 RES     
    5922 HW1         34.8590    33.6630     1.8130 HW1           1 RES     
    5923 HW2         33.3580    33.7960     2.4410 HW2           1 RES     
    5924 OW          -2.3460    42.0380     1.7930 OW            1 RES     
    5925 HW1         -1.8230    41.1860     1.7860 HW1           1 RES     
    5926 HW2         -3.3240    41.8280     1.7980 HW2           1 RES     
    5927 OW          19.7100    40.5720     1.8690 OW            1 RES     
    5928 HW1         20.4930    39.9560     1.7870 HW1           1 RES     
    5929 HW2         18.8690    40.0350     1.9390 HW2           1 RES     
    5930 OW          -1.6380    27.9860     2.9030 OW            1 RES     
    5931 HW1         -1.3780    28.9510     2.9090 HW1           1 RES     
    5932 HW2         -2.6350    27.9080     2.9110 HW2           1 RES     
    5933 OW          39.8660     5.3030    10.8480 OW            1 RES     
    5934 HW1         40.1540     6.1110    10.3360 HW1           1 RES     
    5935 HW2         39.2150     5.5710    11.5580 HW2           1 RES     
    5936 OW          22.3080    34.8250     2.1010 OW            1 RES     
    5937 HW1         22.4430    35.8020     1.9440 HW1           1 RES     
    5938 HW2         21.3490    34.5900     1.9390 HW2           1 RES     
    5939 OW          29.1820    39.0530     6.8450 OW            1 RES     
    5940 HW1         28.6330    39.8880     6.8380 HW1           1 RES     
    5941 HW2         29.8640    39.1080     7.5750 HW2           1 RES     
    5942 OW          -2.5470    22.6440    11.7240 OW            1 RES     
    5943 HW1         -2.8690    23.0090    12.5960 HW1           1 RES     
    5944 HW2         -3.1960    21.9610    11.3870 HW2           1 RES     
    5945 OW           2.9550    31.1450     2.1550 OW            1 RES     
    5946 HW1          3.0150    31.9910     2.6840 HW1           1 RES     
    5947 HW2          3.8570    30.9180     1.7870 HW2           1 RES     
    5948 OW          14.6070    37.3270    13.5270 OW            1 RES     
    5949 HW1         14.0370    36.5080    13.4850 HW1           1 RES     
    5950 HW2         15.5230    37.0810    13.8430 HW2           1 RES     
    5951 OW          23.8850    27.0040    11.5300 OW            1 RES     
    5952 HW1         24.0680    26.7530    10.5800 HW1           1 RES     
    5953 HW2         23.2350    27.7640    11.5540 HW2           1 RES     
    5954 OW          -4.5330    -1.4960    12.2180 OW            1 RES     
    5955 HW1         -4.2400    -2.4490    12.1560 HW1           1 RES     
    5956 HW2         -5.5210    -1.4400    12.0740 HW2           1 RES     
    5957 OW          -1.0950     5.5340     6.3830 OW            1 RES     
    5958 HW1         -1.9030     5.8290     5.8740 HW1           1 RES     
    5959 HW2         -0.2710     5.8500     5.9130 HW2           1 RES     
    5960 OW          28.5910    41.3540     5.1620 OW            1 RES     
    5961 HW1         27.8560    42.0230     5.0540 HW1           1 RES     
    5962 HW2         28.4420    40.5890     4.5350 HW2           1 RES     
    5963 OW          20.9020    31.8290     5.7980 OW            1 RES     
    5964 HW1         19.9170    31.9350     5.6680 HW1           1 RES     
    5965 HW2         21.3040    31.4160     4.9800 HW2           1 RES     
    5966 OW          19.0340    34.4690     8.8580 OW            1 RES     
    5967 HW1         18.7270    33.9970     8.0320 HW1           1 RES     
    5968 HW2         20.0340    34.4840     8.8820 HW2           1 RES     
    5969 OW          -3.4510    38.6090     8.5220 OW            1 RES     
    5970 HW1         -3.5840    37.6610     8.8080 HW1           1 RES     
    5971 HW2         -2.5080    38.7350     8.2110 HW2           1 RES     
    5972 OW          32.9300     6.5230    13.8020 OW            1 RES     
    5973 HW1         33.3370     5.7720    14.3210 HW1           1 RES     
    5974 HW2         33.3680     7.3840    14.0630 HW2           1 RES     
    5975 OW          24.7130    17.0610     1.8480 OW            1 RES     
    5976 HW1         25.6820    16.8260     1.7860 HW1           1 RES     
    5977 HW2         24.6160    18.0460     1.9880 HW2           1 RES     
    5978 OW           5.8390    40.8850     7.8540 OW            1 RES     
    5979 HW1          4.9110    40.5340     7.9690 HW1           1 RES     
    5980 HW2          6.4690    40.3580     8.4250 HW2           1 RES     
    5981 OW          16.1140     1.6470     3.0070 OW            1 RES     
    5982 HW1         17.0290     1.4760     3.3710 HW1           1 RES     
    5983 HW2         15.9040     0.9720     2.2990 HW2           1 RES     
    5984 OW           6.8800    19.5840     4.4560 OW            1 RES     
    5985 HW1          7.4890    18.7960     4.5380 HW1           1 RES     
    5986 HW2          6.0250    19.3970     4.9410 HW2           1 RES     
    5987 OW          28.7630    16.4990    10.4190 OW            1 RES     
    5988 HW1         28.1000    17.2100    10.1870 HW1           1 RES     
    5989 HW2         28.4510    16.0020    11.2280 HW2           1 RES     
    5990 OW          32.0260    21.4590     2.9100 OW            1 RES     
    5991 HW1         31.3770    20.8420     2.4660 HW1           1 RES     
    5992 HW2         32.9040    21.4210     2.4320 HW2           1 RES     
    5993 OW          37.5740    11.5170     9.6730 OW            1 RES     
    5994 HW1         38.2440    10.8630    10.0220 HW1           1 RES     
    5995 HW2         38.0230    12.3910     9.4900 HW2           1 RES     
    5996 OW          39.4870    30.2750     4.0100 OW            1 RES     
    5997 HW1         39.0560    30.2370     4.9110 HW1           1 RES     
    5998 HW2         38.8430    29.9470     3.3180 HW2           1 RES     
    5999 OW           9.6300     5.1970     5.5780 OW            1 RES     
    6000 HW1         10.2120     5.0720     4.7750 HW1           1 RES     
    6001 HW2          8.6740     5.2600     5.2900 HW2           1 RES     
    6002 OW           2.0900    -0.7410    14.7510 OW            1 RES     
    6003 HW1          2.2190    -1.6800    14.4330 HW1           1 RES     
    6004 HW2          2.9640    -0.3730    15.0690 HW2           1 RES     
    6005 OW          25.8500    26.2480    12.5540 OW            1 RES     
    6006 HW1         25.0560    25.9580    13.0870 HW1           1 RES     
    6007 HW2         26.1220    27.1690    12.8330 HW2           1 RES     
    6008 OW          45.1090     4.7350    15.0030 OW            1 RES     
    6009 HW1         44.6790     4.3310    15.8100 HW1           1 RES     
    6010 HW2         44.4070     5.1500    14.4240 HW2           1 RES     
    6011 OW          25.6920     4.7830     8.3270 OW            1 RES     
    6012 HW1         25.9240     4.0080     8.9150 HW1           1 RES     
    6013 HW2         25.3770     4.4470     7.4390 HW2           1 RES     
    6014 OW          39.1670    -0.0170    13.6180 OW            1 RES     
    6015 HW1         40.0880     0.2980    13.3940 HW1           1 RES     
    6016 HW2         39.2230    -0.7890    14.2510 HW2           1 RES     
    6017 OW          33.5420    39.0210    13.3220 OW            1 RES     
    6018 HW1         32.5510    38.9100    13.3880 HW1           1 RES     
    6019 HW2         33.8930    39.4070    14.1760 HW2           1 RES     
    6020 OW          27.1890    11.5570    12.5130 OW            1 RES     
    6021 HW1         26.3170    11.5620    13.0010 HW1           1 RES     
    6022 HW2         27.4320    12.4920    12.2540 HW2           1 RES     
    6023 OW          28.2210    20.2080    16.6020 OW            1 RES     
    6024 HW1         28.7590    19.6520    15.9700 HW1           1 RES     
    6025 HW2         28.8340    20.7700    17.1580 HW2           1 RES     
    6026 OW          14.0860    42.4260     3.1010 OW            1 RES     
    6027 HW1         13.7200    42.0930     2.2320 HW1           1 RES     
    6028 HW2         13.3490    42.4780     3.7750 HW2           1 RES     
    6029 OW          39.2110     4.5190     3.9530 OW            1 RES     
    6030 HW1         39.9470     3.8430     3.9200 HW1           1 RES     
    6031 HW2         38.6360     4.4260     3.1400 HW2           1 RES     
    6032 OW          33.6110    16.7440    10.5740 OW            1 RES     
    6033 HW1         34.5140    16.4570    10.8930 HW1           1 RES     
    6034 HW2         33.0110    15.9470    10.5090 HW2           1 RES     
    6035 OW          29.1430    16.7290     5.2210 OW            1 RES     
    6036 HW1         28.9910    15.8280     5.6240 HW1           1 RES     
    6037 HW2         29.6510    16.6310     4.3640 HW2           1 RES     
    6038 OW          41.0270     4.6010    12.8230 OW            1 RES     
    6039 HW1         40.3130     3.9030    12.8630 HW1           1 RES     
    6040 HW2         41.9200     4.1740    12.9660 HW2           1 RES     
    6041 OW          16.1740    -0.2420    12.3550 OW            1 RES     
    6042 HW1         16.7620    -1.0230    12.1470 HW1           1 RES     
    6043 HW2         15.6520     0.0100    11.5400 HW2           1 RES     
    6044 OW           5.9960     9.6610     2.8070 OW            1 RES     
    6045 HW1          5.0940     9.5540     3.2240 HW1           1 RES     
    6046 HW2          6.1370    10.6190     2.5560 HW2           1 RES     
    6047 OW          13.6180    41.7490     6.3980 OW            1 RES     
    6048 HW1         13.3320    42.6740     6.6470 HW1           1 RES     
    6049 HW2         14.2780    41.7940     5.6480 HW2           1 RES     
    6050 OW          23.3570     1.5580     2.8820 OW            1 RES     
    6051 HW1         23.1280     2.4940     3.1450 HW1           1 RES     
    6052 HW2         24.2990     1.3560     3.1510 HW2           1 RES     
    6053 OW          28.3600    30.4810    11.1450 OW            1 RES     
    6054 HW1         28.7220    29.9300    11.8960 HW1           1 RES     
    6055 HW2         28.8930    31.3240    11.0630 HW2           1 RES     
    6056 OW          20.8980    38.7510    16.1140 OW            1 RES     
    6057 HW1         21.1430    39.0500    17.0360 HW1           1 RES     
    6058 HW2         20.0440    39.1910    15.8370 HW2           1 RES     
    6059 OW          -6.7730    16.8150     2.2200 OW            1 RES     
    6060 HW1         -6.6750    17.7100     1.7860 HW1           1 RES     
    6061 HW2         -6.3500    16.8360     3.1260 HW2           1 RES     
    6062 OW          30.9140    28.3850     9.7530 OW            1 RES     
    6063 HW1         30.4200    27.5260     9.8810 HW1           1 RES     
    6064 HW2         30.2930    29.1540     9.9060 HW2           1 RES     
    6065 OW          44.1590    14.8730     5.0130 OW            1 RES     
    6066 HW1         45.1090    14.6030     5.1650 HW1           1 RES     
    6067 HW2         44.0840    15.8700     5.0570 HW2           1 RES     
    6068 OW          38.7360    21.0590     2.7300 OW            1 RES     
    6069 HW1         37.8660    20.6890     2.4040 HW1           1 RES     
    6070 HW2         38.6650    22.0530     2.8140 HW2           1 RES     
    6071 OW          10.4920    29.7390     8.0420 OW            1 RES     
    6072 HW1         11.2470    29.5950     8.6810 HW1           1 RES     
    6073 HW2          9.6220    29.6720     8.5320 HW2           1 RES     
    6074 OW          34.9290    37.7830     2.8810 OW            1 RES     
    6075 HW1         34.6890    38.3190     3.6890 HW1           1 RES     
    6076 HW2         35.4280    38.3590     2.2340 HW2           1 RES     
    6077 OW          22.9520    10.2400     3.2730 OW            1 RES     
    6078 HW1         22.7400    11.2150     3.3330 HW1           1 RES     
    6079 HW2         23.9120    10.0920     3.5110 HW2           1 RES     
    6080 OW          10.7990    -3.2000     8.2600 OW            1 RES     
    6081 HW1         10.6130    -2.2410     8.0510 HW1           1 RES     
    6082 HW2          9.9370    -3.7060     8.3050 HW2           1 RES     
    6083 OW          18.6960    26.7480     6.4290 OW            1 RES     
    6084 HW1         17.7450    26.5840     6.1670 HW1           1 RES     
    6085 HW2         18.7240    27.3640     7.2160 HW2           1 RES     
    6086 OW           3.9400    -3.7370     8.9750 OW            1 RES     
    6087 HW1          3.3630    -4.2290     9.6260 HW1           1 RES     
    6088 HW2          3.9840    -2.7710     9.2310 HW2           1 RES     
    6089 OW          29.8870    27.3940    12.1730 OW            1 RES     
    6090 HW1         30.6600    26.7950    12.3770 HW1           1 RES     
    6091 HW2         30.2230    28.3090    11.9490 HW2           1 RES     
    6092 OW          42.7630    31.3180    13.7310 OW            1 RES     
    6093 HW1         43.0520    30.3920    13.4920 HW1           1 RES     
    6094 HW2         43.0050    31.5080    14.6830 HW2           1 RES     
    6095 OW          38.1480    19.8260    14.4940 OW            1 RES     
    6096 HW1         38.0400    19.1820    15.2510 HW1           1 RES     
    6097 HW2         37.4480    20.5380    14.5580 HW2           1 RES     
    6098 OW          23.9840     6.4940    10.2200 OW            1 RES     
    6099 HW1         24.6880     6.3280     9.5310 HW1           1 RES     
    6100 HW2         24.1900     5.9650    11.0430 HW2           1 RES     
    6101 OW          24.6970     8.5100     9.2480 OW            1 RES     
    6102 HW1         23.9630     8.3000     8.6030 HW1           1 RES     
    6103 HW2         24.3050     8.8680    10.0950 HW2           1 RES     
    6104 OW          12.1100     3.2530    15.9290 OW            1 RES     
    6105 HW1         12.8640     2.6010    15.8570 HW1           1 RES     
    6106 HW2         12.3760     4.1190    15.5030 HW2           1 RES     
    6107 OW          31.9130    23.6460     9.0920 OW            1 RES     
    6108 HW1         31.6650    22.7410     9.4360 HW1           1 RES     
    6109 HW2         31.0820    24.1650     8.8890 HW2           1 RES     
    6110 OW           6.6930     9.5860    10.7040 OW            1 RES     
    6111 HW1          6.2870    10.4910    10.5840 HW1           1 RES     
    6112 HW2          7.6620     9.6200    10.4590 HW2           1 RES     
    6113 OW           4.7750    41.2670     4.7190 OW            1 RES     
    6114 HW1          4.0330    40.7290     5.1170 HW1           1 RES     
    6115 HW2          4.7690    41.1610     3.7250 HW2           1 RES     
    6116 OW          20.4520    14.1330    10.3580 OW            1 RES     
    6117 HW1         21.4320    14.1040    10.5560 HW1           1 RES     
    6118 HW2         20.0570    13.2240    10.4940 HW2           1 RES     
    6119 OW          32.3900    15.7840     7.4200 OW            1 RES     
    6120 HW1         31.5350    15.3510     7.7030 HW1           1 RES     
    6121 HW2         32.9850    15.1010     6.9940 HW2           1 RES     
    6122 OW          11.8460    29.9610     2.6120 OW            1 RES     
    6123 HW1         12.4110    30.7810     2.5200 HW1           1 RES     
    6124 HW2         10.9100    30.1660     2.3250 HW2           1 RES     
    6125 OW           2.6070    23.9650    14.4330 OW            1 RES     
    6126 HW1          1.7580    24.4120    14.7130 HW1           1 RES     
    6127 HW2          2.4470    22.9840    14.3220 HW2           1 RES     
    6128 OW          35.5070    -0.9300    13.4700 OW            1 RES     
    6129 HW1         35.3110    -0.4680    12.6050 HW1           1 RES     
    6130 HW2         36.3980    -1.3800    13.4130 HW2           1 RES     
    6131 OW          33.9930     0.3940    16.4400 OW            1 RES     
    6132 HW1         33.1880    -0.1750    16.2720 HW1           1 RES     
    6133 HW2         33.7290     1.1960    16.9770 HW2           1 RES     
    6134 OW          29.4330    14.0950    10.6940 OW            1 RES     
    6135 HW1         30.0730    14.2980     9.9530 HW1           1 RES     
    6136 HW2         29.9410    13.7890    11.4990 HW2           1 RES     
    6137 OW           9.8670    39.7670    16.2980 OW            1 RES     
    6138 HW1         10.7370    40.1900    16.0460 HW1           1 RES     
    6139 HW2          9.1300    40.4360    16.2000 HW2           1 RES     
    6140 OW           6.4540    23.3950    11.2280 OW            1 RES     
    6141 HW1          6.3350    23.7210    12.1660 HW1           1 RES     
    6142 HW2          6.5240    22.3970    11.2280 HW2           1 RES     
    6143 OW          36.8450    33.5950     9.1420 OW            1 RES     
    6144 HW1         36.0660    33.9450     8.6220 HW1           1 RES     
    6145 HW2         37.6830    34.0450     8.8320 HW2           1 RES     
    6146 OW           5.7530     7.4630    11.4440 OW            1 RES     
    6147 HW1          5.8910     7.5330    10.4570 HW1           1 RES     
    6148 HW2          4.7880     7.6160    11.6580 HW2           1 RES     
    6149 OW          -4.5990    -0.2050     2.8250 OW            1 RES     
    6150 HW1         -4.6920     0.6290     2.2810 HW1           1 RES     
    6151 HW2         -3.8260    -0.7410     2.4850 HW2           1 RES     
    6152 OW          -3.0200    40.1910    10.6130 OW            1 RES     
    6153 HW1         -3.1100    41.1160    10.9800 HW1           1 RES     
    6154 HW2         -3.8870    39.7050    10.7180 HW2           1 RES     
    6155 OW           0.3420    15.6330     5.5600 OW            1 RES     
    6156 HW1          0.5730    15.4710     6.5190 HW1           1 RES     
    6157 HW2          1.1340    16.0150     5.0850 HW2           1 RES     
    6158 OW          31.1640     4.6220    11.8450 OW            1 RES     
    6159 HW1         31.1500     3.6230    11.8670 HW1           1 RES     
    6160 HW2         30.2510     4.9640    11.6190 HW2           1 RES     
    6161 OW          28.7920    17.4920    12.9360 OW            1 RES     
    6162 HW1         29.7910    17.4870    12.9580 HW1           1 RES     
    6163 HW2         28.4730    18.2950    12.4320 HW2           1 RES     
    6164 OW          22.3150    14.3150     4.4990 OW            1 RES     
    6165 HW1         22.9140    14.7040     3.8000 HW1           1 RES     
    6166 HW2         22.2060    14.9690     5.2480 HW2           1 RES     
    6167 OW          42.2260    17.7450     8.1850 OW            1 RES     
    6168 HW1         41.7930    16.9010     7.8710 HW1           1 RES     
    6169 HW2         41.5220    18.4010     8.4560 HW2           1 RES     
    6170 OW          12.9920     3.4210     6.1810 OW            1 RES     
    6171 HW1         12.9910     2.4370     6.3570 HW1           1 RES     
    6172 HW2         13.8830     3.8020     6.4280 HW2           1 RES     
    6173 OW          30.9720    12.0180     7.8790 OW            1 RES     
    6174 HW1         31.7210    11.3590     7.8320 HW1           1 RES     
    6175 HW2         31.0950    12.7150     7.1730 HW2           1 RES     
    6176 OW          36.1030    19.7240     3.3110 OW            1 RES     
    6177 HW1         35.6000    19.1620     3.9670 HW1           1 RES     
    6178 HW2         35.4750    20.3700     2.8760 HW2           1 RES     
    6179 OW          44.1240     3.6580     8.1420 OW            1 RES     
    6180 HW1         44.8080     4.2690     7.7470 HW1           1 RES     
    6181 HW2         43.2450     4.1320     8.1970 HW2           1 RES     
    6182 OW           4.3390     1.5580    14.9410 OW            1 RES     
    6183 HW1          5.2010     2.0620    14.8930 HW1           1 RES     
    6184 HW2          3.5740     2.2010    14.8950 HW2           1 RES     
    6185 OW          17.2510    36.4880     2.9020 OW            1 RES     
    6186 HW1         18.0420    35.9150     3.1110 HW1           1 RES     
    6187 HW2         17.3250    37.3540     3.3980 HW2           1 RES     
    6188 OW           5.3730    11.7560    16.9890 OW            1 RES     
    6189 HW1          6.2420    12.2300    17.1250 HW1           1 RES     
    6190 HW2          4.6280    12.4230    16.9680 HW2           1 RES     
    6191 OW          13.4410    41.2110    17.2730 OW            1 RES     
    6192 HW1         12.4880    41.1390    16.9810 HW1           1 RES     
    6193 HW2         13.9620    40.4390    16.9080 HW2           1 RES     
    6194 OW          41.9040     6.7790    16.5560 OW            1 RES     
    6195 HW1         41.5000     5.9310    16.8980 HW1           1 RES     
    6196 HW2         42.4630     7.1950    17.2740 HW2           1 RES     
    6197 OW           3.5260    21.2110     2.9200 OW            1 RES     
    6198 HW1          3.0620    21.9370     2.4140 HW1           1 RES     
    6199 HW2          2.8850    20.4630     3.0940 HW2           1 RES     
    6200 OW          38.2500    20.2750     8.9980 OW            1 RES     
    6201 HW1         38.8780    19.4970     8.9830 HW1           1 RES     
    6202 HW2         37.3190    19.9490     9.1670 HW2           1 RES     
    6203 OW          16.8460    -1.8930     7.6380 OW            1 RES     
    6204 HW1         17.6840    -2.4050     7.4500 HW1           1 RES     
    6205 HW2         17.0320    -0.9130     7.5750 HW2           1 RES     
    6206 OW          43.2100     9.5620    16.7570 OW            1 RES     
    6207 HW1         42.4970    10.2620    16.7430 HW1           1 RES     
    6208 HW2         44.1050     9.9990    16.8480 HW2           1 RES     
    6209 OW           0.0550     8.9020     3.2750 OW            1 RES     
    6210 HW1         -0.6150     9.5840     3.5640 HW1           1 RES     
    6211 HW2          0.3850     8.3990     4.0740 HW2           1 RES     
    6212 OW          -1.9230     7.4750     9.8240 OW            1 RES     
    6213 HW1         -2.4390     7.0090    10.5420 HW1           1 RES     
    6214 HW2         -1.9170     8.4600    10.0020 HW2           1 RES     
    6215 OW          42.6440    -4.0830     7.3610 OW            1 RES     
    6216 HW1         42.4850    -3.1050     7.2300 HW1           1 RES     
    6217 HW2         43.5660    -4.3160     7.0500 HW2           1 RES     
    6218 OW          23.1450    19.4710    14.4680 OW            1 RES     
    6219 HW1         22.1510    19.4850    14.3610 HW1           1 RES     
    6220 HW2         23.5690    19.1920    13.6060 HW2           1 RES     
    6221 OW           1.6840     2.6920     2.2680 OW            1 RES     
    6222 HW1          0.8310     2.9360     1.8080 HW1           1 RES     
    6223 HW2          2.4540     3.1110     1.7860 HW2           1 RES     
    6224 OW          -3.7840    -0.5810     7.6760 OW            1 RES     
    6225 HW1         -4.2310    -0.0320     6.9700 HW1           1 RES     
    6226 HW2         -3.8570    -1.5500     7.4410 HW2           1 RES     
    6227 OW          -3.6940    31.0730     7.8910 OW            1 RES     
    6228 HW1         -3.6140    30.0890     8.0460 HW1           1 RES     
    6229 HW2         -2.7870    31.4610     7.7320 HW2           1 RES     
    6230 OW          -0.3720     7.9590     6.8240 OW            1 RES     
    6231 HW1         -0.2180     8.9430     6.9050 HW1           1 RES     
    6232 HW2         -1.3520     7.7810     6.7280 HW2           1 RES     
    6233 OW          31.7390    18.7540     4.0800 OW            1 RES     
    6234 HW1         31.5030    18.6100     3.1190 HW1           1 RES     
    6235 HW2         31.0760    18.2800     4.6610 HW2           1 RES     
    6236 OW           8.1070     7.8680    13.1000 OW            1 RES     
    6237 HW1          8.6230     8.3750    13.7900 HW1           1 RES     
    6238 HW2          7.1290     7.9320    13.2990 HW2           1 RES     
    6239 OW           5.2090    15.5950    12.7250 OW            1 RES     
    6240 HW1          5.6230    14.7020    12.5500 HW1           1 RES     
    6241 HW2          5.9280    16.2830    12.8190 HW2           1 RES     
    6242 OW          27.7690     1.1070     4.9890 OW            1 RES     
    6243 HW1         27.0170     1.3020     4.3600 HW1           1 RES     
    6244 HW2         27.9150     1.8940     5.5890 HW2           1 RES     
    6245 OW          -6.1500    35.6810     7.6710 OW            1 RES     
    6246 HW1         -5.6170    35.7340     6.8280 HW1           1 RES     
    6247 HW2         -6.4450    34.7370     7.8220 HW2           1 RES     
    6248 OW          18.5030    -1.7870     9.4290 OW            1 RES     
    6249 HW1         18.7380    -2.5830     9.9860 HW1           1 RES     
    6250 HW2         18.4400    -0.9780    10.0130 HW2           1 RES     
    6251 OW           8.1790    16.7900     5.1490 OW            1 RES     
    6252 HW1          9.1550    16.9800     5.2480 HW1           1 RES     
    6253 HW2          8.0240    16.2600     4.3150 HW2           1 RES     
    6254 OW          25.9090    32.2860    16.3620 OW            1 RES     
    6255 HW1         25.9060    32.3310    15.3640 HW1           1 RES     
    6256 HW2         25.5130    31.4170    16.6580 HW2           1 RES     
    6257 OW          34.4480    12.7010    16.9460 OW            1 RES     
    6258 HW1         34.5510    13.6950    16.9810 HW1           1 RES     
    6259 HW2         33.4750    12.4660    16.9430 HW2           1 RES     
    6260 OW          18.4750    14.2000     8.5870 OW            1 RES     
    6261 HW1         18.3100    13.2890     8.2120 HW1           1 RES     
    6262 HW2         17.7450    14.8190     8.2960 HW2           1 RES     
    6263 OW          19.5820    38.1490     7.0000 OW            1 RES     
    6264 HW1         20.5420    38.1670     6.7210 HW1           1 RES     
    6265 HW2         19.4720    37.5280     7.7770 HW2           1 RES     
    6266 OW          16.7800     1.4420    16.2060 OW            1 RES     
    6267 HW1         15.8820     1.0100    16.1310 HW1           1 RES     
    6268 HW2         16.6690     2.4350    16.2530 HW2           1 RES     
    6269 OW           8.7720    -0.9500    13.1710 OW            1 RES     
    6270 HW1          8.9290    -1.5810    12.4110 HW1           1 RES     
    6271 HW2          8.6450    -0.0240    12.8160 HW2           1 RES     
    6272 OW           0.2190    32.8150     2.9800 OW            1 RES     
    6273 HW1          0.4210    33.7790     2.8150 HW1           1 RES     
    6274 HW2          0.8430    32.2460     2.4450 HW2           1 RES     
    6275 OW          -6.4760    31.1510     5.1890 OW            1 RES     
    6276 HW1         -6.1760    30.5520     4.4470 HW1           1 RES     
    6277 HW2         -6.4640    32.1010     4.8770 HW2           1 RES     
    6278 OW           3.3330    36.1910     2.0960 OW            1 RES     
    6279 HW1          3.0390    37.1190     1.8700 HW1           1 RES     
    6280 HW2          4.2940    36.2030     2.3720 HW2           1 RES     
    6281 OW           4.2670    24.8260     7.6990 OW            1 RES     
    6282 HW1          4.9410    24.2180     8.1160 HW1           1 RES     
    6283 HW2          4.0330    24.4900     6.7860 HW2           1 RES     
    6284 OW          29.5660    33.3070     2.9320 OW            1 RES     
    6285 HW1         29.3340    32.6440     2.2210 HW1           1 RES     
    6286 HW2         30.3330    33.8710     2.6260 HW2           1 RES     
    6287 OW          41.0760    33.2980     5.3410 OW            1 RES     
    6288 HW1         40.6320    32.4040     5.3010 HW1           1 RES     
    6289 HW2         41.5420    33.4010     6.2190 HW2           1 RES     
    6290 OW           9.1500    38.4360     8.1520 OW            1 RES     
    6291 HW1          8.1890    38.6850     8.0330 HW1           1 RES     
    6292 HW2          9.2310    37.7590     8.8830 HW2           1 RES     
    6293 OW          34.9590     0.2860     9.6130 OW            1 RES     
    6294 HW1         35.5680     0.6890     8.9310 HW1           1 RES     
    6295 HW2         34.0880     0.7780     9.6150 HW2           1 RES     
    6296 OW           6.8170    25.8370    14.0630 OW            1 RES     
    6297 HW1          6.2170    26.4950    14.5160 HW1           1 RES     
    6298 HW2          7.4370    26.3200    13.4450 HW2           1 RES     
    6299 OW          31.0950    11.5930    12.3110 OW            1 RES     
    6300 HW1         31.4190    12.0820    11.5010 HW1           1 RES     
    6301 HW2         30.1400    11.8320    12.4850 HW2           1 RES     
    6302 OW          30.2000    41.3620    11.2440 OW            1 RES     
    6303 HW1         30.8750    41.4960    11.9690 HW1           1 RES     
    6304 HW2         30.3280    42.0570    10.5360 HW2           1 RES     
    6305 OW          26.0230    21.7450    16.3080 OW            1 RES     
    6306 HW1         26.5470    22.5950    16.3030 HW1           1 RES     
    6307 HW2         25.4510    21.7010    15.4880 HW2           1 RES     
    6308 OW          24.7460     6.1160     5.5270 OW            1 RES     
    6309 HW1         25.4680     6.6370     5.0740 HW1           1 RES     
    6310 HW2         24.1400     5.7160     4.8380 HW2           1 RES     
    6311 OW           8.7790    14.0830    15.4800 OW            1 RES     
    6312 HW1          8.3910    13.1980    15.2250 HW1           1 RES     
    6313 HW2          9.6150    13.9410    16.0100 HW2           1 RES     
    6314 OW          37.9150    37.4430     6.6020 OW            1 RES     
    6315 HW1         37.5230    36.5230     6.5990 HW1           1 RES     
    6316 HW2         38.8970    37.3880     6.4220 HW2           1 RES     
    6317 OW          10.2870    36.5340    15.4630 OW            1 RES     
    6318 HW1          9.6980    35.9990    14.8590 HW1           1 RES     
    6319 HW2         11.2110    36.1500    15.4530 HW2           1 RES     
    6320 OW           7.1990    36.5410    15.6540 OW            1 RES     
    6321 HW1          7.0910    35.5880    15.9350 HW1           1 RES     
    6322 HW2          6.3080    36.9950    15.6640 HW2           1 RES     
    6323 OW          31.6870    24.1040     1.9560 OW            1 RES     
    6324 HW1         32.0370    23.7190     2.8090 HW1           1 RES     
    6325 HW2         30.7650    23.7570     1.7860 HW2           1 RES     
    6326 OW           3.0330    42.5240     8.6420 OW            1 RES     
    6327 HW1          2.4360    41.8360     9.0540 HW1           1 RES     
    6328 HW2          3.9850    42.3260     8.8790 HW2           1 RES     
    6329 OW           0.4810    40.1120     8.7510 OW            1 RES     
    6330 HW1          0.7700    40.5150     9.6180 HW1           1 RES     
    6331 HW2         -0.3510    40.5660     8.4330 HW2           1 RES     
    6332 OW          26.6010    -1.3390    12.5520 OW            1 RES     
    6333 HW1         26.8770    -0.3800    12.5050 HW1           1 RES     
    6334 HW2         27.4150    -1.9210    12.5500 HW2           1 RES     
    6335 OW          13.8250    42.2310    13.5590 OW            1 RES     
    6336 HW1         14.1760    41.9240    12.6750 HW1           1 RES     
    6337 HW2         12.9330    42.6650    13.4310 HW2           1 RES     
    6338 OW          16.5060    21.1660    16.1750 OW            1 RES     
    6339 HW1         16.6570    20.9180    17.1310 HW1           1 RES     
    6340 HW2         16.5920    20.3520    15.6000 HW2           1 RES     
    6341 OW          26.1590    16.8270     8.3670 OW            1 RES     
    6342 HW1         25.3160    16.9190     7.8400 HW1           1 RES     
    6343 HW2         26.8340    17.4870     8.0350 HW2           1 RES     
    6344 OW          21.1650    -1.8460    10.7150 OW            1 RES     
    6345 HW1         20.6110    -1.3600    10.0400 HW1           1 RES     
    6346 HW2         20.6380    -2.6070    11.0940 HW2           1 RES     
    6347 OW          10.0500    -3.7770    13.9680 OW            1 RES     
    6348 HW1         10.2590    -4.3050    13.1460 HW1           1 RES     
    6349 HW2          9.4590    -4.3140    14.5700 HW2           1 RES     
    6350 OW          -0.5250    36.7150     5.9270 OW            1 RES     
    6351 HW1         -0.6270    37.0990     5.0100 HW1           1 RES     
    6352 HW2         -0.5140    35.7160     5.8720 HW2           1 RES     
    6353 OW          35.8800     9.3790     9.7320 OW            1 RES     
    6354 HW1         36.5760     9.0240     9.1090 HW1           1 RES     
    6355 HW2         36.3220     9.8910    10.4690 HW2           1 RES     
    6356 OW          12.3900    40.6630    11.3520 OW            1 RES     
    6357 HW1         12.5580    39.8150    10.8510 HW1           1 RES     
    6358 HW2         12.5290    40.5070    12.3300 HW2           1 RES     
    6359 OW          -1.5760     3.2230     9.3460 OW            1 RES     
    6360 HW1         -1.4890     4.0540     9.8930 HW1           1 RES     
    6361 HW2         -2.2750     3.3560     8.6440 HW2           1 RES     
    6362 OW          23.0970    26.4470     7.9840 OW            1 RES     
    6363 HW1         22.9300    27.3770     7.6580 HW1           1 RES     
    6364 HW2         22.2470    25.9210     7.9430 HW2           1 RES     
    6365 OW          42.9130    -3.3370    11.5140 OW            1 RES     
    6366 HW1         42.2800    -2.9260    12.1680 HW1           1 RES     
    6367 HW2         42.7250    -4.3160    11.4370 HW2           1 RES     
    6368 OW          -2.0860    13.1940    11.8340 OW            1 RES     
    6369 HW1         -3.0520    13.2630    11.5900 HW1           1 RES     
    6370 HW2         -1.8810    12.2590    12.1260 HW2           1 RES     
    6371 OW          -0.5200    43.3140     3.1880 OW            1 RES     
    6372 HW1         -0.3060    42.5980     2.5250 HW1           1 RES     
    6373 HW2         -1.5030    43.3100     3.3780 HW2           1 RES     
    6374 OW          25.2930    34.3530    10.0760 OW            1 RES     
    6375 HW1         25.1390    33.9510    10.9780 HW1           1 RES     
    6376 HW2         25.4590    33.6250     9.4110 HW2           1 RES     
    6377 OW          31.5800     6.7080    11.2800 OW            1 RES     
    6378 HW1         31.2880     6.9480    12.2050 HW1           1 RES     
    6379 HW2         31.8180     7.5400    10.7790 HW2           1 RES     
    6380 OW          38.4150    40.6030    16.1580 OW            1 RES     
    6381 HW1         39.3870    40.7770    16.3080 HW1           1 RES     
    6382 HW2         37.9310    40.6310    17.0330 HW2           1 RES     
    6383 OW          12.7120    29.4320     6.4710 OW            1 RES     
    6384 HW1         12.0280    28.7780     6.7940 HW1           1 RES     
    6385 HW2         12.5550    30.3200     6.9030 HW2           1 RES     
    6386 OW          43.5790    22.0110    16.8020 OW            1 RES     
    6387 HW1         44.3240    22.6660    16.6820 HW1           1 RES     
    6388 HW2         42.7030    22.4940    16.7770 HW2           1 RES     
    6389 OW          15.4800    13.1110     4.3320 OW            1 RES     
    6390 HW1         15.3630    12.4070     3.6320 HW1           1 RES     
    6391 HW2         16.4320    13.4160     4.3430 HW2           1 RES     
    6392 OW          24.7490    23.8850     2.0310 OW            1 RES     
    6393 HW1         23.8130    23.5340     2.0270 HW1           1 RES     
    6394 HW2         25.3910    23.1240     1.9330 HW2           1 RES     
    6395 OW          20.4680     0.3710     1.7970 OW            1 RES     
    6396 HW1         21.0650     1.1730     1.7860 HW1           1 RES     
    6397 HW2         19.5140     0.6670     1.8500 HW2           1 RES     
    6398 OW          32.4740    36.3670     1.8880 OW            1 RES     
    6399 HW1         33.3970    36.3280     2.2680 HW1           1 RES     
    6400 HW2         32.1940    37.3220     1.7860 HW2           1 RES     
    6401 OW           5.6490    23.6010    15.5750 OW            1 RES     
    6402 HW1          5.4680    24.4970    15.1710 HW1           1 RES     
    6403 HW2          6.5910    23.3290    15.3760 HW2           1 RES     
    6404 OW          -1.3830    -1.4300    15.2590 OW            1 RES     
    6405 HW1         -1.5560    -0.4480    15.1850 HW1           1 RES     
    6406 HW2         -1.9000    -1.9140    14.5530 HW2           1 RES     
    6407 OW          38.3180    24.9080     8.6060 OW            1 RES     
    6408 HW1         37.8130    25.4800     9.2520 HW1           1 RES     
    6409 HW2         39.0360    24.4090     9.0920 HW2           1 RES     
    6410 OW          35.4320    28.6510     9.1530 OW            1 RES     
    6411 HW1         35.6590    29.1500     8.3170 HW1           1 RES     
    6412 HW2         35.9190    29.0570     9.9260 HW2           1 RES     
    6413 OW          25.6900    10.2700     4.9440 OW            1 RES     
    6414 HW1         24.9800    10.8000     5.4060 HW1           1 RES     
    6415 HW2         25.4270     9.3060     4.9210 HW2           1 RES     
    6416 OW           2.3790     1.7740     4.1430 OW            1 RES     
    6417 HW1          3.1220     1.3820     3.6010 HW1           1 RES     
    6418 HW2          1.5470     1.2360     4.0070 HW2           1 RES     
    6419 OW           5.4670    35.3060    10.9650 OW            1 RES     
    6420 HW1          4.7270    35.6620    10.3940 HW1           1 RES     
    6421 HW2          5.0790    34.8020    11.7370 HW2           1 RES     
    6422 OW          31.0080    17.5560    15.5620 OW            1 RES     
    6423 HW1         31.4390    16.6540    15.5550 HW1           1 RES     
    6424 HW2         30.0160    17.4520    15.4940 HW2           1 RES     
    6425 OW          30.8410    37.2450    14.9760 OW            1 RES     
    6426 HW1         30.9750    38.2350    14.9510 HW1           1 RES     
    6427 HW2         29.8880    37.0320    14.7560 HW2           1 RES     
    6428 OW          -5.1420    29.9660     2.0600 OW            1 RES     
    6429 HW1         -4.3630    30.0710     2.6780 HW1           1 RES     
    6430 HW2         -5.7420    30.7620     2.1410 HW2           1 RES     
    6431 OW          28.2910    12.9430    16.3660 OW            1 RES     
    6432 HW1         28.9320    12.7550    15.6230 HW1           1 RES     
    6433 HW2         28.1250    12.1040    16.8850 HW2           1 RES     
    6434 OW          41.7090    23.5120    12.8280 OW            1 RES     
    6435 HW1         41.8730    22.8730    13.5780 HW1           1 RES     
    6436 HW2         42.2360    23.2300    12.0260 HW2           1 RES     
    6437 OW          29.2660    10.3220    14.6000 OW            1 RES     
    6438 HW1         30.1710    10.6630    14.3490 HW1           1 RES     
    6439 HW2         28.5970    10.6170    13.9170 HW2           1 RES     
    6440 OW           5.8470    19.9430    15.9010 OW            1 RES     
    6441 HW1          5.9210    19.0000    16.2240 HW1           1 RES     
    6442 HW2          5.5860    19.9460    14.9360 HW2           1 RES     
    6443 OW           6.2240    31.4950    16.4350 OW            1 RES     
    6444 HW1          5.3450    31.8340    16.7690 HW1           1 RES     
    6445 HW2          6.9380    31.7010    17.1040 HW2           1 RES     
    6446 OW          11.1850    36.9320     8.2680 OW            1 RES     
    6447 HW1         11.9570    36.3050     8.3680 HW1           1 RES     
    6448 HW2         11.4410    37.6830     7.6580 HW2           1 RES     
    6449 OW           8.5430    24.3220     8.9110 OW            1 RES     
    6450 HW1          8.4870    25.0670     8.2470 HW1           1 RES     
    6451 HW2          8.8420    24.6850     9.7940 HW2           1 RES     
    6452 OW          25.3880     1.9510     7.6980 OW            1 RES     
    6453 HW1         25.6550     1.8400     8.6550 HW1           1 RES     
    6454 HW2         26.2060     1.9520     7.1210 HW2           1 RES     
    6455 OW          28.4490    -3.3630     4.4620 OW            1 RES     
    6456 HW1         28.7540    -4.3150     4.4510 HW1           1 RES     
    6457 HW2         29.2450    -2.7580     4.4850 HW2           1 RES     
    6458 OW          31.7250    28.3690    13.5570 OW            1 RES     
    6459 HW1         31.6260    27.8420    14.4000 HW1           1 RES     
    6460 HW2         31.8380    29.3370    13.7790 HW2           1 RES     
    6461 OW          23.8790     3.6410     6.0440 OW            1 RES     
    6462 HW1         23.2660     4.2890     6.4950 HW1           1 RES     
    6463 HW2         23.6490     3.5830     5.0720 HW2           1 RES     
    6464 OW          -3.4620    15.9610    12.6690 OW            1 RES     
    6465 HW1         -2.9060    16.7910    12.6620 HW1           1 RES     
    6466 HW2         -2.8650    15.1590    12.6910 HW2           1 RES     
    6467 OW          17.0580    40.9640     6.4090 OW            1 RES     
    6468 HW1         16.4280    41.6750     6.0980 HW1           1 RES     
    6469 HW2         16.8820    40.1180     5.9050 HW2           1 RES     
    6470 OW          -1.7690    34.5840    11.3590 OW            1 RES     
    6471 HW1         -2.3550    33.9260    10.8880 HW1           1 RES     
    6472 HW2         -2.3180    35.3620    11.6660 HW2           1 RES     
    6473 OW          32.7080    32.3470     7.2930 OW            1 RES     
    6474 HW1         33.6720    32.6080     7.3060 HW1           1 RES     
    6475 HW2         32.1390    33.1690     7.2680 HW2           1 RES     
    6476 OW          13.0600    12.8730    13.3870 OW            1 RES     
    6477 HW1         12.9730    11.9720    13.8110 HW1           1 RES     
    6478 HW2         12.2300    13.0810    12.8700 HW2           1 RES     
    6479 OW          10.6340    12.4530    14.2480 OW            1 RES     
    6480 HW1          9.8800    12.7530    13.6640 HW1           1 RES     
    6481 HW2         10.2660    12.0530    15.0870 HW2           1 RES     
    6482 OW           1.1940    34.9420     8.8000 OW            1 RES     
    6483 HW1          0.6070    35.4480     9.4300 HW1           1 RES     
    6484 HW2          2.0840    35.3950     8.7350 HW2           1 RES     
    6485 OW          26.2480    10.5240    10.7530 OW            1 RES     
    6486 HW1         26.1560    11.4810    10.4810 HW1           1 RES     
    6487 HW2         25.4920    10.2740    11.3570 HW2           1 RES     
    6488 OW           9.8110     1.2540     1.9630 OW            1 RES     
    6489 HW1          9.6540     0.2680     1.9320 HW1           1 RES     
    6490 HW2          8.9340     1.7310     2.0180 HW2           1 RES     
    6491 OW           0.2540    34.2560    14.3780 OW            1 RES     
    6492 HW1         -0.0560    33.6390    15.1010 HW1           1 RES     
    6493 HW2          0.5600    35.1170    14.7840 HW2           1 RES     
    6494 OW          14.3050    18.9430     2.5830 OW            1 RES     
    6495 HW1         14.7350    18.8380     3.4790 HW1           1 RES     
    6496 HW2         13.9670    18.0550     2.2690 HW2           1 RES     
    6497 OW          -5.3250    29.8090    17.2740 OW            1 RES     
    6498 HW1         -5.9260    29.1800    16.7830 HW1           1 RES     
    6499 HW2         -5.0020    30.5190    16.6480 HW2           1 RES     
    6500 OW          -2.3570    27.9480     9.3120 OW            1 RES     
    6501 HW1         -3.2490    27.5640     9.5480 HW1           1 RES     
    6502 HW2         -1.6520    27.5330     9.8880 HW2           1 RES     
    6503 OW          33.0170    27.6510     6.3300 OW            1 RES     
    6504 HW1         33.5480    28.4710     6.5420 HW1           1 RES     
    6505 HW2         32.0430    27.8470     6.4400 HW2           1 RES     
    6506 OW          25.2420     5.1730     1.7860 OW            1 RES     
    6507 HW1         25.5220     5.9320     2.3720 HW1           1 RES     
    6508 HW2         24.4280     4.7360     2.1720 HW2           1 RES     
    6509 OW          12.7920    18.8210    13.4100 OW            1 RES     
    6510 HW1         12.2920    17.9950    13.6630 HW1           1 RES     
    6511 HW2         12.2990    19.3020    12.6850 HW2           1 RES     
    6512 OW          41.5940     4.0610     2.4780 OW            1 RES     
    6513 HW1         42.0440     3.4980     1.7860 HW1           1 RES     
    6514 HW2         40.9490     4.6830     2.0350 HW2           1 RES     
    6515 OW          36.1240    -3.6500    11.5550 OW            1 RES     
    6516 HW1         36.6610    -4.1300    12.2490 HW1           1 RES     
    6517 HW2         36.2830    -2.6660    11.6320 HW2           1 RES     
    6518 OW           7.5970    10.7430     8.5350 OW            1 RES     
    6519 HW1          6.8200    11.3700     8.5710 HW1           1 RES     
    6520 HW2          8.4470    11.2580     8.6380 HW2           1 RES     
    6521 OW          10.4990     9.0970     9.2510 OW            1 RES     
    6522 HW1          9.7280     9.6650     9.5390 HW1           1 RES     
    6523 HW2         10.1840     8.1610     9.0940 HW2           1 RES     
    6524 OW          20.3940    12.5930     8.3190 OW            1 RES     
    6525 HW1         20.6960    12.2980     7.4130 HW1           1 RES     
    6526 HW2         19.9870    11.8190     8.8030 HW2           1 RES     
    6527 OW          23.9410    30.7590     3.3390 OW            1 RES     
    6528 HW1         23.9500    30.1250     4.1110 HW1           1 RES     
    6529 HW2         24.8450    31.1740     3.2370 HW2           1 RES     
    6530 OW          23.6470    13.2990     7.8920 OW            1 RES     
    6531 HW1         23.4020    13.6070     8.8110 HW1           1 RES     
    6532 HW2         23.4890    14.0390     7.2380 HW2           1 RES     
    6533 OW          -3.5400    19.1530     4.3230 OW            1 RES     
    6534 HW1         -3.1030    18.2930     4.0620 HW1           1 RES     
    6535 HW2         -4.2410    19.3900     3.6490 HW2           1 RES     
    6536 OW          23.4130    18.0640     6.5770 OW            1 RES     
    6537 HW1         22.6460    18.5890     6.2090 HW1           1 RES     
    6538 HW2         24.2300    18.6410     6.6050 HW2           1 RES     
    6539 OW          40.0080    31.3410    16.2660 OW            1 RES     
    6540 HW1         39.4180    30.6070    15.9300 HW1           1 RES     
    6541 HW2         39.8120    31.5110    17.2320 HW2           1 RES     
    6542 OW          15.0680    15.0850    11.5050 OW            1 RES     
    6543 HW1         15.5840    15.7960    11.0280 HW1           1 RES     
    6544 HW2         15.4870    14.9090    12.3960 HW2           1 RES     
    6545 OW           0.5360    38.9100    15.8040 OW            1 RES     
    6546 HW1          1.4800    38.6370    15.6200 HW1           1 RES     
    6547 HW2          0.4920    39.9030    15.9170 HW2           1 RES     
    6548 OW          14.7020    20.8010     8.2550 OW            1 RES     
    6549 HW1         14.8400    19.8700     7.9180 HW1           1 RES     
    6550 HW2         13.8670    21.1800     7.8550 HW2           1 RES     
    6551 OW          38.4800    38.8070    11.5370 OW            1 RES     
    6552 HW1         38.2320    39.2860    12.3780 HW1           1 RES     
    6553 HW2         39.1940    39.3200    11.0590 HW2           1 RES     
    6554 OW          34.0230    27.1380    13.7640 OW            1 RES     
    6555 HW1         33.4290    26.5730    13.1930 HW1           1 RES     
    6556 HW2         34.6710    27.6320    13.1840 HW2           1 RES     
    6557 OW           2.9790     7.6650     3.1950 OW            1 RES     
    6558 HW1          3.2650     8.4650     2.6680 HW1           1 RES     
    6559 HW2          3.2850     7.7620     4.1420 HW2           1 RES     
    6560 OW          36.2310    11.5200     7.7680 OW            1 RES     
    6561 HW1         36.5690    10.6000     7.5730 HW1           1 RES     
    6562 HW2         35.3050    11.4630     8.1430 HW2           1 RES     
    6563 OW          29.6590    -0.1140     7.4050 OW            1 RES     
    6564 HW1         30.4270     0.5170     7.3000 HW1           1 RES     
    6565 HW2         29.9060    -1.0060     7.0250 HW2           1 RES     
    6566 OW          36.6900     1.6690     6.5230 OW            1 RES     
    6567 HW1         36.8620     0.8760     7.1070 HW1           1 RES     
    6568 HW2         36.7580     1.3970     5.5630 HW2           1 RES     
    6569 OW          45.1080    -3.0320     4.6350 OW            1 RES     
    6570 HW1         44.5050    -2.8200     3.8670 HW1           1 RES     
    6571 HW2         44.6540    -3.6800     5.2470 HW2           1 RES     
    6572 OW          38.8650    15.9770     4.2370 OW            1 RES     
    6573 HW1         39.7180    15.4560     4.2380 HW1           1 RES     
    6574 HW2         39.0700    16.9550     4.2470 HW2           1 RES     
    6575 OW           1.8220    11.2740     5.1140 OW            1 RES     
    6576 HW1          1.5600    11.4640     6.0600 HW1           1 RES     
    6577 HW2          1.0000    11.1160     4.5660 HW2           1 RES     
    6578 OW          13.2110    36.0740     6.2760 OW            1 RES     
    6579 HW1         12.2750    36.2770     5.9920 HW1           1 RES     
    6580 HW2         13.8050    36.0430     5.4710 HW2           1 RES     
    6581 OW          -4.7660    24.9450     7.9670 OW            1 RES     
    6582 HW1         -4.8980    24.4940     7.0850 HW1           1 RES     
    6583 HW2         -5.3060    25.7860     7.9970 HW2           1 RES     
    6584 OW          10.6750    34.9640     4.0250 OW            1 RES     
    6585 HW1         10.1240    35.4800     4.6800 HW1           1 RES     
    6586 HW2         11.6440    35.1600     4.1760 HW2           1 RES     
    6587 OW          13.4090    26.0430    13.4390 OW            1 RES     
    6588 HW1         14.3200    25.8520    13.8030 HW1           1 RES     
    6589 HW2         12.9090    25.1840    13.3240 HW2           1 RES     
    6590 OW           0.6860    19.1320    17.1690 OW            1 RES     
    6591 HW1          1.4050    18.4460    17.2740 HW1           1 RES     
    6592 HW2          1.0990    20.0260    16.9990 HW2           1 RES     
    6593 OW           7.7360    10.8420    12.4860 OW            1 RES     
    6594 HW1          7.9250    11.6540    13.0370 HW1           1 RES     
    6595 HW2          8.5810    10.3230    12.3550 HW2           1 RES     
    6596 OW          29.9850    22.0220     6.7540 OW            1 RES     
    6597 HW1         29.5750    22.8470     7.1420 HW1           1 RES     
    6598 HW2         29.6420    21.2190     7.2400 HW2           1 RES     
    6599 OW          -6.5450    17.3890     8.7580 OW            1 RES     
    6600 HW1         -5.7220    17.8630     8.4470 HW1           1 RES     
    6601 HW2         -6.4120    16.4010     8.6750 HW2           1 RES     
    6602 OW          16.5840    -2.5460    17.2740 OW            1 RES     
    6603 HW1         16.6420    -3.2480    16.5640 HW1           1 RES     
    6604 HW2         16.5130    -1.6450    16.8480 HW2           1 RES     
    6605 OW          39.6040    12.8490    15.5740 OW            1 RES     
    6606 HW1         39.7880    12.7180    16.5470 HW1           1 RES     
    6607 HW2         38.8690    13.5170    15.4600 HW2           1 RES     
    6608 OW           2.9810    -3.4980     2.7750 OW            1 RES     
    6609 HW1          2.2730    -4.2020     2.8220 HW1           1 RES     
    6610 HW2          3.7260    -3.7310     3.4000 HW2           1 RES     
    6611 OW           4.9120     5.4470    15.2050 OW            1 RES     
    6612 HW1          5.3100     6.1060    14.5670 HW1           1 RES     
    6613 HW2          3.9810     5.7280    15.4370 HW2           1 RES     
    6614 OW          40.0370    32.0880     7.9640 OW            1 RES     
    6615 HW1         40.7050    31.6410     7.3700 HW1           1 RES     
    6616 HW2         39.5240    32.7670     7.4380 HW2           1 RES     
    6617 OW           8.0760    16.1700    10.8380 OW            1 RES     
    6618 HW1          8.8030    15.6280    10.4170 HW1           1 RES     
    6619 HW2          7.6050    15.6180    11.5260 HW2           1 RES     
    6620 OW          39.1230    16.7600     6.5300 OW            1 RES     
    6621 HW1         38.3240    17.3070     6.2870 HW1           1 RES     
    6622 HW2         39.8770    17.3650     6.7870 HW2           1 RES     
    6623 OW          -2.9520    11.8290     4.0750 OW            1 RES     
    6624 HW1         -2.4680    11.3360     3.3530 HW1           1 RES     
    6625 HW2         -3.6210    11.2220     4.5040 HW2           1 RES     
    6626 OW          12.8480    35.0310     1.9920 OW            1 RES     
    6627 HW1         13.0060    34.0660     1.7870 HW1           1 RES     
    6628 HW2         13.3720    35.2890     2.8040 HW2           1 RES     
    6629 OW           5.1340     1.4150     6.0700 OW            1 RES     
    6630 HW1          5.1530     0.8580     6.9000 HW1           1 RES     
    6631 HW2          4.2140     1.7850     5.9370 HW2           1 RES     
    6632 OW          -5.1450    -2.5370    14.1950 OW            1 RES     
    6633 HW1         -4.4280    -3.2330    14.2040 HW1           1 RES     
    6634 HW2         -5.4100    -2.3190    15.1340 HW2           1 RES     
    6635 OW          -3.6470    34.3410     6.2630 OW            1 RES     
    6636 HW1         -4.0140    34.2700     7.1890 HW1           1 RES     
    6637 HW2         -3.1200    33.5170     6.0490 HW2           1 RES     
    6638 OW          28.0110    -1.5990     5.8920 OW            1 RES     
    6639 HW1         27.6010    -1.1020     5.1280 HW1           1 RES     
    6640 HW2         27.2970    -2.0920     6.3900 HW2           1 RES     
    6641 OW          24.0370     3.7360    10.3020 OW            1 RES     
    6642 HW1         23.5510     3.2300     9.5900 HW1           1 RES     
    6643 HW2         24.7780     3.1710    10.6660 HW2           1 RES     
    6644 OW          23.3620    34.0270     8.8330 OW            1 RES     
    6645 HW1         22.4960    33.8670     8.3580 HW1           1 RES     
    6646 HW2         23.8020    34.8430     8.4580 HW2           1 RES     
    6647 OW           8.8070     1.2110     4.8300 OW            1 RES     
    6648 HW1          8.2560     0.9410     4.0410 HW1           1 RES     
    6649 HW2          8.6280     2.1700     5.0500 HW2           1 RES     
    6650 OW          41.3210     0.7770     2.5560 OW            1 RES     
    6651 HW1         41.5510     0.1090     1.8490 HW1           1 RES     
    6652 HW2         40.7880     1.5210     2.1520 HW2           1 RES     
    6653 OW          43.7910    19.4120    10.1850 OW            1 RES     
    6654 HW1         44.3080    19.7950    10.9490 HW1           1 RES     
    6655 HW2         43.0220    18.8770    10.5360 HW2           1 RES     
    6656 OW           1.6540    38.4450     9.5790 OW            1 RES     
    6657 HW1          1.8590    37.4690     9.5090 HW1           1 RES     
    6658 HW2          2.2090    38.8520    10.3050 HW2           1 RES     
    6659 OW           1.5080    37.6460     5.0160 OW            1 RES     
    6660 HW1          1.2310    38.0680     4.1530 HW1           1 RES     
    6661 HW2          1.6290    36.6620     4.8830 HW2           1 RES     
    6662 OW           4.3890    -1.7860    14.0840 OW            1 RES     
    6663 HW1          4.7140    -0.8770    13.8270 HW1           1 RES     
    6664 HW2          4.7680    -2.4660    13.4550 HW2           1 RES     
    6665 OW          28.0000    37.9470     9.1440 OW            1 RES     
    6666 HW1         28.9850    38.0380     9.2850 HW1           1 RES     
    6667 HW2         27.7110    38.5540     8.4040 HW2           1 RES     
    6668 OW          -6.6920    32.9220    16.8940 OW            1 RES     
    6669 HW1         -5.7980    32.5330    17.1120 HW1           1 RES     
    6670 HW2         -6.5830    33.8830    16.6360 HW2           1 RES     
    6671 OW          26.0510    31.1850    12.2880 OW            1 RES     
    6672 HW1         25.0580    31.0840    12.2320 HW1           1 RES     
    6673 HW2         26.3000    32.1350    12.1010 HW2           1 RES     
    6674 OW          30.6450    21.6660    15.3320 OW            1 RES     
    6675 HW1         30.7730    21.1910    16.2010 HW1           1 RES     
    6676 HW2         29.9040    21.2310    14.8190 HW2           1 RES     
    6677 OW           6.8540    -0.7520    11.7660 OW            1 RES     
    6678 HW1          6.2750    -0.3940    11.0340 HW1           1 RES     
    6679 HW2          6.3150    -1.3570    12.3520 HW2           1 RES     
    6680 OW          28.4540    40.1380    15.3920 OW            1 RES     
    6681 HW1         29.2850    39.5850    15.3550 HW1           1 RES     
    6682 HW2         28.6950    41.0930    15.5660 HW2           1 RES     
    6683 OW          19.7920    23.0960     8.3350 OW            1 RES     
    6684 HW1         20.6790    23.5570     8.3080 HW1           1 RES     
    6685 HW2         19.9310    22.1060     8.3400 HW2           1 RES     
    6686 OW          42.5650    -0.4710    10.9760 OW            1 RES     
    6687 HW1         43.0390    -1.2990    10.6800 HW1           1 RES     
    6688 HW2         41.5760    -0.6130    10.9180 HW2           1 RES     
    6689 OW           9.1550    20.0220     5.2880 OW            1 RES     
    6690 HW1          9.3980    19.9370     6.2540 HW1           1 RES     
    6691 HW2          9.7430    19.4260     4.7420 HW2           1 RES     
    6692 OW          20.9140    15.8760    16.3370 OW            1 RES     
    6693 HW1         20.0100    16.2390    16.1130 HW1           1 RES     
    6694 HW2         20.9380    14.8960    16.1420 HW2           1 RES     
    6695 OW          38.6070    -3.5230    14.6340 OW            1 RES     
    6696 HW1         37.8200    -2.9770    14.3490 HW1           1 RES     
    6697 HW2         39.3600    -2.9160    14.8900 HW2           1 RES     
    6698 OW           8.6910     6.7630    11.2720 OW            1 RES     
    6699 HW1          9.2350     5.9830    11.5790 HW1           1 RES     
    6700 HW2          9.2900     7.5490    11.1200 HW2           1 RES     
    6701 OW          20.2190    25.2660     7.0020 OW            1 RES     
    6702 HW1         20.8610    25.5200     6.2790 HW1           1 RES     
    6703 HW2         19.6040    24.5520     6.6660 HW2           1 RES     
    6704 OW          14.1860    15.7170    14.1680 OW            1 RES     
    6705 HW1         13.2690    16.1070    14.2460 HW1           1 RES     
    6706 HW2         14.1250    14.7180    14.1630 HW2           1 RES     
    6707 OW          11.5310    28.1360     4.0190 OW            1 RES     
    6708 HW1         11.5870    27.1420     3.9260 HW1           1 RES     
    6709 HW2         12.3230    28.4680     4.5320 HW2           1 RES     
    6710 OW          14.0190    40.7830     9.0800 OW            1 RES     
    6711 HW1         14.4760    41.3350     8.3830 HW1           1 RES     
    6712 HW2         14.7040    40.2850     9.6130 HW2           1 RES     
    6713 OW          10.7020    18.0690     7.7410 OW            1 RES     
    6714 HW1         11.5140    18.0680     7.1580 HW1           1 RES     
    6715 HW2         10.4440    19.0120     7.9540 HW2           1 RES     
    6716 OW          -3.3000    41.7270    16.5330 OW            1 RES     
    6717 HW1         -3.3000    42.1400    15.6230 HW1           1 RES     
    6718 HW2         -4.1000    42.0410    17.0430 HW2           1 RES     
    6719 OW          17.7120    25.7060    12.4840 OW            1 RES     
    6720 HW1         18.7080    25.6310    12.4590 HW1           1 RES     
    6721 HW2         17.4350    26.5990    12.1290 HW2           1 RES     
    6722 OW          -3.9560    24.9060     3.0970 OW            1 RES     
    6723 HW1         -4.7790    24.9090     2.5300 HW1           1 RES     
    6724 HW2         -3.3950    25.7040     2.8760 HW2           1 RES     
    6725 OW          -1.7440    40.6150     6.6000 OW            1 RES     
    6726 HW1         -1.9480    41.5710     6.3920 HW1           1 RES     
    6727 HW2         -1.5370    40.1260     5.7530 HW2           1 RES     
    6728 OW          44.6230    14.0150    10.9540 OW            1 RES     
    6729 HW1         43.6740    14.1080    10.6550 HW1           1 RES     
    6730 HW2         45.1080    13.3920    10.3390 HW2           1 RES     
    6731 OW          24.7150     6.3560    15.0860 OW            1 RES     
    6732 HW1         25.5470     6.2210    15.6230 HW1           1 RES     
    6733 HW2         24.9290     6.8860    14.2650 HW2           1 RES     
    6734 OW          27.5750    38.1480     5.4810 OW            1 RES     
    6735 HW1         28.3760    38.3550     4.9200 HW1           1 RES     
    6736 HW2         27.6660    37.2300     5.8680 HW2           1 RES     
    6737 OW          20.6640    37.4750     3.1110 OW            1 RES     
    6738 HW1         19.8510    37.8810     2.6960 HW1           1 RES     
    6739 HW2         21.4620    38.0430     2.9060 HW2           1 RES     
    6740 OW          32.9780    10.3670    12.5040 OW            1 RES     
    6741 HW1         33.2450    11.3030    12.7310 HW1           1 RES     
    6742 HW2         33.7050     9.7370    12.7770 HW2           1 RES     
    6743 OW          42.8580    29.7640    17.2330 OW            1 RES     
    6744 HW1         42.1570    29.0520    17.2720 HW1           1 RES     
    6745 HW2         42.5660    30.4860    16.6060 HW2           1 RES     
    6746 OW          12.2390     6.1360    11.5360 OW            1 RES     
    6747 HW1         12.8860     5.5660    11.0290 HW1           1 RES     
    6748 HW2         12.3000     5.9230    12.5110 HW2           1 RES     
    6749 OW          24.7150     0.5160    14.8690 OW            1 RES     
    6750 HW1         25.7130     0.5750    14.8890 HW1           1 RES     
    6751 HW2         24.4250    -0.3630    15.2480 HW2           1 RES     
    6752 OW          19.7640    23.1420    14.2440 OW            1 RES     
    6753 HW1         20.6360    23.5370    14.5330 HW1           1 RES     
    6754 HW2         19.0990    23.8740    14.0950 HW2           1 RES     
    6755 OW          30.9710     2.6790    17.2740 OW            1 RES     
    6756 HW1         30.5130     3.1390    16.5140 HW1           1 RES     
    6757 HW2         31.9460     2.9010    17.2590 HW2           1 RES     
    6758 OW          12.5840     8.6620     8.2840 OW            1 RES     
    6759 HW1         12.3400     8.3130     7.3800 HW1           1 RES     
    6760 HW2         12.3730     7.9730     8.9770 HW2           1 RES     
    6761 OW          24.0010    38.1180     9.9740 OW            1 RES     
    6762 HW1         23.8690    37.7200    10.8810 HW1           1 RES     
    6763 HW2         23.2260    38.7100     9.7530 HW2           1 RES     
    6764 OW          41.3130    33.7490     9.3040 OW            1 RES     
    6765 HW1         40.3590    33.9580     9.0920 HW1           1 RES     
    6766 HW2         41.8740    33.8890     8.4880 HW2           1 RES     
    6767 OW          25.4650    16.3520    10.4010 OW            1 RES     
    6768 HW1         24.7230    15.6990    10.2530 HW1           1 RES     
    6769 HW2         26.3280    15.8570    10.5080 HW2           1 RES     
    6770 OW          -1.6830    -3.5180     7.2860 OW            1 RES     
    6771 HW1         -1.4640    -4.0820     8.0820 HW1           1 RES     
    6772 HW2         -0.8870    -3.4700     6.6820 HW2           1 RES     
    6773 OW          25.0240    -1.9530    16.6450 OW            1 RES     
    6774 HW1         25.6790    -2.5410    17.1190 HW1           1 RES     
    6775 HW2         24.0940    -2.2060    16.9110 HW2           1 RES     
    6776 OW          16.7750     8.0110     7.3110 OW            1 RES     
    6777 HW1         15.8480     8.1860     7.6430 HW1           1 RES     
    6778 HW2         16.7870     7.1550     6.7930 HW2           1 RES     
    6779 OW           0.4680    18.6350    15.0360 OW            1 RES     
    6780 HW1          1.4370    18.8660    15.1150 HW1           1 RES     
    6781 HW2          0.0410    19.2190    14.3450 HW2           1 RES     
    6782 OW          16.3740     3.2610    10.8150 OW            1 RES     
    6783 HW1         17.1400     3.2030    10.1750 HW1           1 RES     
    6784 HW2         16.3070     2.4070    11.3330 HW2           1 RES     
    6785 OW          -1.1280    16.6290     2.1150 OW            1 RES     
    6786 HW1         -1.5670    15.8440     2.5520 HW1           1 RES     
    6787 HW2         -1.2390    17.4380     2.6930 HW2           1 RES     
    6788 OW          -3.1250    39.9550     3.0620 OW            1 RES     
    6789 HW1         -2.5670    40.4550     3.7230 HW1           1 RES     
    6790 HW2         -2.6380    39.1330     2.7680 HW2           1 RES     
    6791 OW          -1.4490    -0.7910     8.0510 OW            1 RES     
    6792 HW1         -1.6840     0.1790     7.9970 HW1           1 RES     
    6793 HW2         -1.3940    -1.0680     9.0110 HW2           1 RES     
    6794 OW          39.5130    26.1780    15.2790 OW            1 RES     
    6795 HW1         40.4010    25.7990    15.5380 HW1           1 RES     
    6796 HW2         38.8000    25.7860    15.8610 HW2           1 RES     
    6797 OW          37.8110    33.6470     5.1340 OW            1 RES     
    6798 HW1         37.2950    33.7010     5.9880 HW1           1 RES     
    6799 HW2         38.4950    32.9210     5.2030 HW2           1 RES     
    6800 OW          -3.8680    31.1680    14.2590 OW            1 RES     
    6801 HW1         -4.2170    30.2310    14.2810 HW1           1 RES     
    6802 HW2         -4.4990    31.7470    13.7420 HW2           1 RES     
    6803 OW          27.1050     7.8030     8.4890 OW            1 RES     
    6804 HW1         26.8580     8.7000     8.8530 HW1           1 RES     
    6805 HW2         26.5090     7.5800     7.7170 HW2           1 RES     
    6806 OW          25.0690    28.8530     6.1730 OW            1 RES     
    6807 HW1         24.4650    29.6460     6.2460 HW1           1 RES     
    6808 HW2         25.0030    28.4670     5.2520 HW2           1 RES     
    6809 OW          12.2850    19.6210     3.1320 OW            1 RES     
    6810 HW1         12.1710    18.7570     3.6220 HW1           1 RES     
    6811 HW2         12.8700    20.2320     3.6650 HW2           1 RES     
    6812 OW          32.1590    10.0740    15.0860 OW            1 RES     
    6813 HW1         32.2070     9.3970    14.3520 HW1           1 RES     
    6814 HW2         33.0420    10.1230    15.5520 HW2           1 RES     
    6815 OW          -3.8260    18.4020     9.4250 OW            1 RES     
    6816 HW1         -4.2450    18.9780    10.1260 HW1           1 RES     
    6817 HW2         -3.1820    18.9450     8.8860 HW2           1 RES     
    6818 OW          30.5170    -3.8200    12.5290 OW            1 RES     
    6819 HW1         29.7200    -4.2810    12.1400 HW1           1 RES     
    6820 HW2         31.3470    -4.3160    12.2740 HW2           1 RES     
    6821 OW           0.4070    33.3070    11.0220 OW            1 RES     
    6822 HW1          1.0530    33.0270    11.7310 HW1           1 RES     
    6823 HW2         -0.2850    32.5950    10.9000 HW2           1 RES     
    6824 OW          30.4260    38.7590    10.7860 OW            1 RES     
    6825 HW1         31.1620    39.3970    11.0060 HW1           1 RES     
    6826 HW2         29.5550    39.1300    11.1080 HW2           1 RES     
    6827 OW          17.2580     7.8830    13.9800 OW            1 RES     
    6828 HW1         16.3630     8.1030    14.3670 HW1           1 RES     
    6829 HW2         17.1820     7.0670    13.4070 HW2           1 RES     
    6830 OW          15.0760    23.6710     6.3750 OW            1 RES     
    6831 HW1         14.6450    24.3460     6.9730 HW1           1 RES     
    6832 HW2         16.0040    23.4830     6.6970 HW2           1 RES     
    6833 OW          25.6510    37.1600    12.4130 OW            1 RES     
    6834 HW1         25.5140    36.1700    12.4090 HW1           1 RES     
    6835 HW2         25.4830    37.5170    13.3330 HW2           1 RES     
    6836 OW          18.9200    43.3140    16.7100 OW            1 RES     
    6837 HW1         19.7460    43.2990    17.2740 HW1           1 RES     
    6838 HW2         18.1270    43.0840    17.2740 HW2           1 RES     
    6839 OW          35.1490    10.7550    15.3960 OW            1 RES     
    6840 HW1         35.0330    10.1400    14.6160 HW1           1 RES     
    6841 HW2         35.1520    11.7020    15.0760 HW2           1 RES     
    6842 OW           7.2720    11.0180     4.4250 OW            1 RES     
    6843 HW1          7.7910    10.1900     4.2170 HW1           1 RES     
    6844 HW2          7.0860    11.0570     5.4070 HW2           1 RES     
    6845 OW          26.2080     3.4850    12.3090 OW            1 RES     
    6846 HW1         25.9450     4.4160    12.0600 HW1           1 RES     
    6847 HW2         27.1250     3.2920    11.9610 HW2           1 RES     
    6848 OW          27.5230    23.3910     2.6350 OW            1 RES     
    6849 HW1         28.0900    23.6200     3.4250 HW1           1 RES     
    6850 HW2         27.5270    22.4000     2.4970 HW2           1 RES     
    6851 OW          30.1290    36.0850    16.7270 OW            1 RES     
    6852 HW1         29.4340    35.6200    17.2740 HW1           1 RES     
    6853 HW2         30.9630    36.1920    17.2690 HW2           1 RES     
    6854 OW          25.1420    42.4630    15.5620 OW            1 RES     
    6855 HW1         24.4960    41.7000    15.5560 HW1           1 RES     
    6856 HW2         24.6540    43.3140    15.3660 HW2           1 RES     
    6857 OW           8.0330     3.8570    12.0880 OW            1 RES     
    6858 HW1          8.6140     3.0660    12.2790 HW1           1 RES     
    6859 HW2          7.9500     4.4170    12.9120 HW2           1 RES     
    6860 OW          26.0660    36.7570     9.0860 OW            1 RES     
    6861 HW1         25.1520    36.3880     9.2520 HW1           1 RES     
    6862 HW2         26.1500    37.0180     8.1240 HW2           1 RES     
    6863 OW          -1.9300     9.6440     5.6990 OW            1 RES     
    6864 HW1         -1.6330    10.5960     5.6440 HW1           1 RES     
    6865 HW2         -2.8310     9.5990     6.1310 HW2           1 RES     
    6866 OW          -6.7150    30.1640    11.2070 OW            1 RES     
    6867 HW1         -5.7590    30.0100    10.9610 HW1           1 RES     
    6868 HW2         -6.7730    30.9000    11.8820 HW2           1 RES     
    6869 OW          39.3870    -1.3960     8.7280 OW            1 RES     
    6870 HW1         38.6580    -0.8210     8.3570 HW1           1 RES     
    6871 HW2         39.4280    -2.2550     8.2160 HW2           1 RES     
    6872 OW          22.8190    12.0120    13.0860 OW            1 RES     
    6873 HW1         23.5220    12.6830    12.8570 HW1           1 RES     
    6874 HW2         21.9340    12.4710    13.1720 HW2           1 RES     
    6875 OW           1.7960     8.0670     5.7330 OW            1 RES     
    6876 HW1          1.8290     7.8250     6.7030 HW1           1 RES     
    6877 HW2          2.0100     9.0380     5.6240 HW2           1 RES     
    6878 OW           1.5870     6.7480    13.7280 OW            1 RES     
    6879 HW1          2.5800     6.6430    13.7860 HW1           1 RES     
    6880 HW2          1.3530     7.7200    13.7550 HW2           1 RES     
    6881 OW          26.0940    -4.3140    12.5950 OW            1 RES     
    6882 HW1         25.7560    -3.3750    12.5470 HW1           1 RES     
    6883 HW2         27.0890    -4.3150    12.4970 HW2           1 RES     
    6884 OW          22.7500    29.3660     9.3160 OW            1 RES     
    6885 HW1         22.3150    28.5320     9.6550 HW1           1 RES     
    6886 HW2         23.6500    29.1450     8.9400 HW2           1 RES     
    6887 OW          -1.1300    16.8730    16.6590 OW            1 RES     
    6888 HW1         -0.7960    16.8830    15.7170 HW1           1 RES     
    6889 HW2         -0.4130    17.2070    17.2710 HW2           1 RES     
    6890 OW           0.5530    38.0780    12.9020 OW            1 RES     
    6891 HW1          1.2050    38.3610    12.1990 HW1           1 RES     
    6892 HW2          0.4960    38.7850    13.6080 HW2           1 RES     
    6893 OW          -3.6040    20.2420    17.2740 OW            1 RES     
    6894 HW1         -3.4430    21.2240    17.1830 HW1           1 RES     
    6895 HW2         -2.7480    19.7470    17.1190 HW2           1 RES     
    6896 OW          31.3680    42.6600     1.9560 OW            1 RES     
    6897 HW1         32.0820    43.1700     2.4350 HW1           1 RES     
    6898 HW2         30.5860    43.2600     1.7870 HW2           1 RES     
    6899 OW          13.1710    -2.0270    15.3040 OW            1 RES     
    6900 HW1         13.8600    -2.7500    15.3400 HW1           1 RES     
    6901 HW2         12.2630    -2.4240    15.4350 HW2           1 RES     
    6902 OW          40.9650    38.0180    10.8090 OW            1 RES     
    6903 HW1         40.9880    37.8210     9.8290 HW1           1 RES     
    6904 HW2         40.4730    37.2890    11.2840 HW2           1 RES     
    6905 OW           4.7630     5.2870    11.1820 OW            1 RES     
    6906 HW1          5.5800     4.7130    11.2170 HW1           1 RES     
    6907 HW2          4.6840     5.7020    10.2750 HW2           1 RES     
    6908 OW          41.0850     2.8760     6.8150 OW            1 RES     
    6909 HW1         40.2430     3.1400     6.3460 HW1           1 RES     
    6910 HW2         40.9960     3.0680     7.7930 HW2           1 RES     
    6911 OW          17.6590    38.9890     9.6000 OW            1 RES     
    6912 HW1         16.6860    39.2140     9.6230 HW1           1 RES     
    6913 HW2         17.7740    37.9970     9.6420 HW2           1 RES     
    6914 OW          -6.7730    -0.5810     7.4040 OW            1 RES     
    6915 HW1         -6.3740     0.1920     7.8960 HW1           1 RES     
    6916 HW2         -6.0560    -1.2420     7.1830 HW2           1 RES     
    6917 OW          37.1700     0.7680     1.7860 OW            1 RES     
    6918 HW1         36.5100     0.0750     2.0760 HW1           1 RES     
    6919 HW2         37.0340     1.6030     2.3200 HW2           1 RES     
    6920 OW           1.4860    25.9500     4.7400 OW            1 RES     
    6921 HW1          2.0810    25.7980     5.5280 HW1           1 RES     
    6922 HW2          0.6170    26.3390     5.0470 HW2           1 RES     
    6923 OW          34.3480     4.9440     4.8220 OW            1 RES     
    6924 HW1         34.9620     5.7190     4.9660 HW1           1 RES     
    6925 HW2         34.6710     4.1590     5.3520 HW2           1 RES     
    6926 OW          39.2370    43.3140    15.5250 OW            1 RES     
    6927 HW1         38.4560    42.7440    15.2710 HW1           1 RES     
    6928 HW2         40.0610    42.7500    15.5700 HW2           1 RES     
    6929 OW           0.2220    35.5340    11.7490 OW            1 RES     
    6930 HW1          0.8170    35.1130    12.4320 HW1           1 RES     
    6931 HW2          0.6360    36.3830    11.4220 HW2           1 RES     
    6932 OW          32.5410    20.3480    13.3940 OW            1 RES     
    6933 HW1         32.4630    21.2930    13.7110 HW1           1 RES     
    6934 HW2         31.8520    20.1740    12.6900 HW2           1 RES     
    6935 OW          22.0020    22.4350     6.9450 OW            1 RES     
    6936 HW1         22.4150    23.3450     6.9640 HW1           1 RES     
    6937 HW2         21.5300    22.3000     6.0730 HW2           1 RES     
    6938 OW          34.1780    23.5380    15.6640 OW            1 RES     
    6939 HW1         33.8530    22.5940    15.6140 HW1           1 RES     
    6940 HW2         33.4090    24.1640    15.5290 HW2           1 RES     
    6941 OW          -5.7780    12.6090    14.2910 OW            1 RES     
    6942 HW1         -6.7730    12.6170    14.3890 HW1           1 RES     
    6943 HW2         -5.4260    13.5400    14.3890 HW2           1 RES     
    6944 OW          13.9840     6.0860     8.8170 OW            1 RES     
    6945 HW1         13.5330     5.2050     8.9560 HW1           1 RES     
    6946 HW2         14.2960     6.1560     7.8690 HW2           1 RES     
    6947 OW          16.5620    16.4190    14.5210 OW            1 RES     
    6948 HW1         15.8810    17.1250    14.3310 HW1           1 RES     
    6949 HW2         17.4600    16.8450    14.6400 HW2           1 RES     
    6950 OW          -6.7680     9.3840     5.8110 OW            1 RES     
    6951 HW1         -6.6890     8.4830     5.3860 HW1           1 RES     
    6952 HW2         -6.1720     9.4280     6.6130 HW2           1 RES     
    6953 OW          33.6180     8.7070    10.2330 OW            1 RES     
    6954 HW1         33.6380     9.4500     9.5650 HW1           1 RES     
    6955 HW2         34.2090     7.9620     9.9210 HW2           1 RES     
    6956 OW          36.8040     2.2350    13.6360 OW            1 RES     
    6957 HW1         37.5960     1.9830    13.0800 HW1           1 RES     
    6958 HW2         36.6240     3.2140    13.5360 HW2           1 RES     
    6959 OW          10.1710     3.5240     7.2020 OW            1 RES     
    6960 HW1         10.3270     3.4110     8.1830 HW1           1 RES     
    6961 HW2         10.8860     3.0450     6.6930 HW2           1 RES     
    6962 OW          30.1470     3.6860     8.7910 OW            1 RES     
    6963 HW1         29.5440     3.5510     9.5770 HW1           1 RES     
    6964 HW2         30.9420     4.2250     9.0700 HW2           1 RES     
    6965 OW          -2.7630     2.2060     6.6340 OW            1 RES     
    6966 HW1         -3.6810     2.0990     7.0160 HW1           1 RES     
    6967 HW2         -2.5620     1.4360     6.0280 HW2           1 RES     
    6968 OW          35.0120    -1.7860     8.8750 OW            1 RES     
    6969 HW1         34.9080    -2.4690     8.1530 HW1           1 RES     
    6970 HW2         35.2620    -2.2390     9.7310 HW2           1 RES     
    6971 OW           6.8200    14.1790     9.3350 OW            1 RES     
    6972 HW1          7.0050    15.0220     8.8320 HW1           1 RES     
    6973 HW2          7.4130    13.4490     8.9940 HW2           1 RES     
    6974 OW          15.8520    18.3100    16.6650 OW            1 RES     
    6975 HW1         15.3330    19.1090    16.9660 HW1           1 RES     
    6976 HW2         16.8090    18.4120    16.9350 HW2           1 RES     
    6977 OW           3.6470    37.3840    17.0320 OW            1 RES     
    6978 HW1          3.3800    38.3160    17.2740 HW1           1 RES     
    6979 HW2          2.8770    36.7640    17.1850 HW2           1 RES     
    6980 OW           4.8640     5.9380     1.9720 OW            1 RES     
    6981 HW1          4.4500     6.8290     1.7880 HW1           1 RES     
    6982 HW2          4.1580     5.2980     2.2770 HW2           1 RES     
    6983 OW          29.6480    34.9050    13.6060 OW            1 RES     
    6984 HW1         29.5500    34.0350    14.0880 HW1           1 RES     
    6985 HW2         29.6610    34.7410    12.6200 HW2           1 RES     
    6986 OW           1.6020    -0.0020     9.3150 OW            1 RES     
    6987 HW1          1.6820    -0.9950     9.2300 HW1           1 RES     
    6988 HW2          1.3780     0.2350    10.2600 HW2           1 RES     
    6989 OW          23.0230    36.6510     5.8950 OW            1 RES     
    6990 HW1         22.5760    37.5420     5.9670 HW1           1 RES     
    6991 HW2         23.3120    36.3470     6.8030 HW2           1 RES     
    6992 OW          42.6300    35.8930    11.2160 OW            1 RES     
    6993 HW1         43.1590    36.5700    10.7050 HW1           1 RES     
    6994 HW2         41.8340    35.6150    10.6790 HW2           1 RES     
    6995 OW           7.4800     7.6290     8.1590 OW            1 RES     
    6996 HW1          8.4130     7.6440     7.8010 HW1           1 RES     
    6997 HW2          7.2790     8.5010     8.6040 HW2           1 RES     
    6998 OW          14.3710     6.5440     5.4230 OW            1 RES     
    6999 HW1         15.2190     7.0440     5.2500 HW1           1 RES     
    7000 HW2         13.6510     7.1880     5.6820 HW2           1 RES     
    7001 OW          -3.9670    15.8680     5.4650 OW            1 RES     
    7002 HW1         -4.2540    15.3840     6.2910 HW1           1 RES     
    7003 HW2         -3.9600    16.8520     5.6410 HW2           1 RES     
    7004 OW          16.8150     2.3520    13.8540 OW            1 RES     
    7005 HW1         15.9290     2.6720    14.1880 HW1           1 RES     
    7006 HW2         17.2860     3.1000    13.3860 HW2           1 RES     
    7007 OW          24.5890    -0.8910     6.3090 OW            1 RES     
    7008 HW1         24.7970    -0.2000     7.0010 HW1           1 RES     
    7009 HW2         24.2300    -0.4440     5.4890 HW2           1 RES     
    7010 OW          13.1300     2.9450    13.2320 OW            1 RES     
    7011 HW1         13.3680     2.0320    12.9040 HW1           1 RES     
    7012 HW2         13.2290     3.6040    12.4870 HW2           1 RES     
    7013 OW          29.9130    29.1100     4.3850 OW            1 RES     
    7014 HW1         29.5940    29.5490     5.2230 HW1           1 RES     
    7015 HW2         30.8690    28.8360     4.4940 HW2           1 RES     
    7016 OW           9.6800    17.7180    14.2590 OW            1 RES     
    7017 HW1         10.2420    18.5450    14.2490 HW1           1 RES     
    7018 HW2          8.7150    17.9720    14.3250 HW2           1 RES     
    7019 OW          16.2520    38.6710     2.0000 OW            1 RES     
    7020 HW1         15.6620    37.8650     2.0510 HW1           1 RES     
    7021 HW2         15.6950    39.4800     1.8110 HW2           1 RES     
    7022 OW          19.2300    42.3220     7.7840 OW            1 RES     
    7023 HW1         19.4440    43.2780     7.9830 HW1           1 RES     
    7024 HW2         20.0580    41.8500     7.4800 HW2           1 RES     
    7025 OW          28.4580     1.8490     8.7010 OW            1 RES     
    7026 HW1         27.8110     1.4070     9.3210 HW1           1 RES     
    7027 HW2         28.2730     1.5570     7.7620 HW2           1 RES     
    7028 OW          35.7910    10.4040    12.5680 OW            1 RES     
    7029 HW1         35.3590    11.1560    12.0730 HW1           1 RES     
    7030 HW2         36.7290    10.6570    12.8080 HW2           1 RES     
    7031 OW           9.8970    33.3750    16.7160 OW            1 RES     
    7032 HW1          9.0470    33.6170    17.1820 HW1           1 RES     
    7033 HW2         10.2090    32.4790    17.0320 HW2           1 RES     
    7034 OW          41.6490     0.5320     6.3270 OW            1 RES     
    7035 HW1         42.1720    -0.3190     6.3730 HW1           1 RES     
    7036 HW2         40.6810     0.3220     6.1930 HW2           1 RES     
    7037 OW          -5.8390    23.3200    15.9140 OW            1 RES     
    7038 HW1         -6.0400    22.3480    16.0320 HW1           1 RES     
    7039 HW2         -6.2020    23.8320    16.6930 HW2           1 RES     
    7040 OW          39.7710    33.3410    11.5280 OW            1 RES     
    7041 HW1         39.5390    34.2230    11.1190 HW1           1 RES     
    7042 HW2         40.7380    33.1430    11.3660 HW2           1 RES     
    7043 OW          13.4160    39.3640     3.6160 OW            1 RES     
    7044 HW1         14.0780    40.1080     3.6990 HW1           1 RES     
    7045 HW2         13.9010    38.4980     3.4890 HW2           1 RES     
    7046 OW          10.1420    40.4760    13.7580 OW            1 RES     
    7047 HW1         10.3770    40.4620    12.7870 HW1           1 RES     
    7048 HW2          9.1550    40.3540    13.8650 HW2           1 RES     
    7049 OW          16.7360    30.8870     8.7350 OW            1 RES     
    7050 HW1         17.0810    31.7620     8.3960 HW1           1 RES     
    7051 HW2         15.7420    30.8590     8.6340 HW2           1 RES     
    7052 OW          10.4960    36.9420     3.0760 OW            1 RES     
    7053 HW1         11.3880    36.7470     2.6680 HW1           1 RES     
    7054 HW2          9.9310    37.4420     2.4190 HW2           1 RES     
    7055 OW          27.4890    30.9970     3.8060 OW            1 RES     
    7056 HW1         27.1470    31.8360     3.3850 HW1           1 RES     
    7057 HW2         27.6020    30.2930     3.1040 HW2           1 RES     
    7058 OW          -1.4350     8.0220    13.3000 OW            1 RES     
    7059 HW1         -2.2820     8.5500    13.2520 HW1           1 RES     
    7060 HW2         -1.6330     7.0560    13.1330 HW2           1 RES     
    7061 OW          22.5940    19.7900    11.7260 OW            1 RES     
    7062 HW1         23.3240    19.1790    11.4200 HW1           1 RES     
    7063 HW2         21.8850    19.2570    12.1890 HW2           1 RES     
    7064 OW          14.1510    32.2300     6.9310 OW            1 RES     
    7065 HW1         13.9000    32.3040     7.8960 HW1           1 RES     
    7066 HW2         14.6720    31.3890     6.7850 HW2           1 RES     
    7067 OW          27.3760    30.2470    15.8420 OW            1 RES     
    7068 HW1         26.7170    30.1630    15.0950 HW1           1 RES     
    7069 HW2         27.0870    29.6720    16.6070 HW2           1 RES     
    7070 OW          20.1080    17.4230    13.9730 OW            1 RES     
    7071 HW1         20.3320    18.2530    14.4830 HW1           1 RES     
    7072 HW2         19.4310    17.6370    13.2680 HW2           1 RES     
    7073 OW          16.8730    -3.1370    14.3790 OW            1 RES     
    7074 HW1         16.0470    -3.6890    14.4840 HW1           1 RES     
    7075 HW2         17.3160    -3.3610    13.5110 HW2           1 RES     
    7076 OW           2.7720    40.2030    14.3330 OW            1 RES     
    7077 HW1          2.1080    40.9490    14.3120 HW1           1 RES     
    7078 HW2          3.3640    40.2600    13.5290 HW2           1 RES     
    7079 OW          -0.1290    -0.4640    13.2930 OW            1 RES     
    7080 HW1          0.1740    -1.3210    13.7080 HW1           1 RES     
    7081 HW2         -1.0930    -0.5400    13.0360 HW2           1 RES     
    7082 OW           1.3620    -0.2500     7.1220 OW            1 RES     
    7083 HW1          0.3850    -0.0680     7.0200 HW1           1 RES     
    7084 HW2          1.8750     0.5980     6.9860 HW2           1 RES     
    7085 OW          -2.9090    16.3150     8.5290 OW            1 RES     
    7086 HW1         -3.8530    16.0400     8.3530 HW1           1 RES     
    7087 HW2         -2.5330    15.7630     9.2740 HW2           1 RES     
    7088 OW          -5.8410    38.0890     7.4310 OW            1 RES     
    7089 HW1         -6.7730    37.7910     7.6310 HW1           1 RES     
    7090 HW2         -5.5930    38.8430     8.0410 HW2           1 RES     
    7091 OW           8.3420    28.3300    11.1580 OW            1 RES     
    7092 HW1          8.0610    27.9540    10.2760 HW1           1 RES     
    7093 HW2          9.2160    27.9270    11.4310 HW2           1 RES     
    7094 OW          39.5350    16.2470     9.4630 OW            1 RES     
    7095 HW1         39.0220    16.0780    10.3040 HW1           1 RES     
    7096 HW2         40.4400    16.6090     9.6900 HW2           1 RES     
    7097 OW          39.3920    29.8660     7.4640 OW            1 RES     
    7098 HW1         39.3690    29.6000     8.4260 HW1           1 RES     
    7099 HW2         39.3360    29.0490     6.8890 HW2           1 RES     
    7100 OW          32.4290    -1.0900    14.3580 OW            1 RES     
    7101 HW1         33.2950    -1.4230    13.9870 HW1           1 RES     
    7102 HW2         31.6900    -1.7060    14.0850 HW2           1 RES     
    7103 OW           6.8090    18.4400    12.5610 OW            1 RES     
    7104 HW1          6.9890    18.9880    13.3770 HW1           1 RES     
    7105 HW2          7.5270    17.7510    12.4580 HW2           1 RES     
    7106 OW          44.8540     7.0870    15.7410 OW            1 RES     
    7107 HW1         44.2270     6.4510    16.1900 HW1           1 RES     
    7108 HW2         45.0830     7.8300    16.3690 HW2           1 RES     
    7109 OW          40.6130    17.5110    16.9400 OW            1 RES     
    7110 HW1         41.4940    17.8450    17.2740 HW1           1 RES     
    7111 HW2         39.9000    18.1790    17.1530 HW2           1 RES     
    7112 OW          -5.6680    27.3790    10.8010 OW            1 RES     
    7113 HW1         -6.4490    27.9090    10.4710 HW1           1 RES     
    7114 HW2         -4.8900    27.9890    10.9520 HW2           1 RES     
    7115 OW          23.8140     9.4650    16.6260 OW            1 RES     
    7116 HW1         23.0160     8.8670    16.6870 HW1           1 RES     
    7117 HW2         24.6430     8.9100    16.5620 HW2           1 RES     
    7118 OW           5.1350    33.6840    15.0630 OW            1 RES     
    7119 HW1          6.0310    33.4550    15.4420 HW1           1 RES     
    7120 HW2          4.9790    34.6690    15.1470 HW2           1 RES     
    7121 OW          25.7290    23.7820    12.0430 OW            1 RES     
    7122 HW1         25.9210    24.4250    11.3030 HW1           1 RES     
    7123 HW2         26.5890    23.4950    12.4670 HW2           1 RES     
    7124 OW           5.6090    27.6940     7.9680 OW            1 RES     
    7125 HW1          5.8720    26.7890     7.6370 HW1           1 RES     
    7126 HW2          6.3120    28.3590     7.7140 HW2           1 RES     
    7127 OW          12.6450    34.8430    16.5010 OW            1 RES     
    7128 HW1         13.5860    34.9750    16.1910 HW1           1 RES     
    7129 HW2         12.6310    34.1820    17.2520 HW2           1 RES     
    7130 OW          -3.8820    31.8050    11.6310 OW            1 RES     
    7131 HW1         -3.9850    31.3030    10.7720 HW1           1 RES     
    7132 HW2         -4.1300    32.7630    11.4890 HW2           1 RES     
    7133 OW          44.1500    32.7680     7.3390 OW            1 RES     
    7134 HW1         45.1090    32.9700     7.1410 HW1           1 RES     
    7135 HW2         43.6870    32.4870     6.4980 HW2           1 RES     
    7136 OW          33.8900    41.9610     2.1050 OW            1 RES     
    7137 HW1         34.6100    41.3250     1.8280 HW1           1 RES     
    7138 HW2         34.2960    42.8490     2.3230 HW2           1 RES     
    7139 OW          30.9520     7.8300    15.6360 OW            1 RES     
    7140 HW1         31.1860     7.1410    16.3200 HW1           1 RES     
    7141 HW2         31.1810     7.4870    14.7240 HW2           1 RES     
    7142 OW          44.5550    23.9300    14.7730 OW            1 RES     
    7143 HW1         43.5880    23.6950    14.8620 HW1           1 RES     
    7144 HW2         45.0560    23.1490    14.4000 HW2           1 RES     
    7145 OW           8.1520    10.6560    15.5320 OW            1 RES     
    7146 HW1          8.8240    10.2800    14.8950 HW1           1 RES     
    7147 HW2          8.4800    10.5410    16.4700 HW2           1 RES     
    7148 OW          -1.4120    37.8710    15.7660 OW            1 RES     
    7149 HW1         -1.6520    36.9960    15.3480 HW1           1 RES     
    7150 HW2         -1.4520    37.7880    16.7620 HW2           1 RES     
    7151 OW          16.3240    -1.9200     2.2330 OW            1 RES     
    7152 HW1         15.5860    -1.2570     2.1140 HW1           1 RES     
    7153 HW2         17.1600    -1.4450     2.5070 HW2           1 RES     
    7154 OW          35.1510    26.0180     8.6190 OW            1 RES     
    7155 HW1         35.8650    26.4940     9.1320 HW1           1 RES     
    7156 HW2         34.4540    25.6810     9.2520 HW2           1 RES     
    7157 OW          26.3810    41.0460     7.8240 OW            1 RES     
    7158 HW1         26.3560    40.0890     7.5360 HW1           1 RES     
    7159 HW2         27.3230    41.3800     7.7920 HW2           1 RES     
    7160 OW          36.5270    27.3110    15.6780 OW            1 RES     
    7161 HW1         35.9910    27.0990    14.8610 HW1           1 RES     
    7162 HW2         36.2910    26.6680    16.4070 HW2           1 RES     
    7163 OW          -4.2890    19.3050    14.2090 OW            1 RES     
    7164 HW1         -4.4180    19.2830    15.2000 HW1           1 RES     
    7165 HW2         -4.7180    20.1260    13.8340 HW2           1 RES     
    7166 OW          -2.7360    34.0560    13.3870 OW            1 RES     
    7167 HW1         -1.9350    34.4340    13.8500 HW1           1 RES     
    7168 HW2         -2.6210    33.0680    13.2740 HW2           1 RES     
    7169 OW          23.9000     9.3520    12.9100 OW            1 RES     
    7170 HW1         23.4440    10.0380    12.3430 HW1           1 RES     
    7171 HW2         24.2400     8.6120    12.3300 HW2           1 RES     
    7172 OW          20.6040    42.6040     5.4870 OW            1 RES     
    7173 HW1         19.9110    43.3110     5.6250 HW1           1 RES     
    7174 HW2         21.4920    42.9420     5.7980 HW2           1 RES     
    7175 OW          37.7240     3.3910    11.3940 OW            1 RES     
    7176 HW1         38.7100     3.2620    11.5000 HW1           1 RES     
    7177 HW2         37.4580     4.2690    11.7940 HW2           1 RES     
    7178 OW          18.3910    30.5890    13.5450 OW            1 RES     
    7179 HW1         18.2110    31.5060    13.1910 HW1           1 RES     
    7180 HW2         18.0860    29.9090    12.8780 HW2           1 RES     
    7181 OW          24.7860    15.9230     5.3490 OW            1 RES     
    7182 HW1         24.8410    15.4800     6.2440 HW1           1 RES     
    7183 HW2         23.8990    16.3750     5.2540 HW2           1 RES     
    7184 OW          -1.9150    10.6950    15.9020 OW            1 RES     
    7185 HW1         -1.5030     9.7950    15.7650 HW1           1 RES     
    7186 HW2         -2.4700    10.6850    16.7340 HW2           1 RES     
    7187 OW          17.0800    13.9350    10.9020 OW            1 RES     
    7188 HW1         16.8950    12.9540    10.8560 HW1           1 RES     
    7189 HW2         18.0550    14.0990    10.7450 HW2           1 RES     
    7190 OW          12.6670    11.4260     9.6910 OW            1 RES     
    7191 HW1         12.0680    12.2230     9.6210 HW1           1 RES     
    7192 HW2         13.5130    11.5980     9.1860 HW2           1 RES     
    7193 OW          24.2550    -3.6500     6.4210 OW            1 RES     
    7194 HW1         23.7320    -2.9090     6.0010 HW1           1 RES     
    7195 HW2         24.8360    -3.2800     7.1450 HW2           1 RES     
    7196 OW           7.4540    30.5900    12.5370 OW            1 RES     
    7197 HW1          7.6510    30.5570    11.5580 HW1           1 RES     
    7198 HW2          6.4640    30.6330    12.6780 HW2           1 RES     
    7199 OW          33.8110    22.0110     5.5870 OW            1 RES     
    7200 HW1         33.9360    21.3390     4.8580 HW1           1 RES     
    7201 HW2         34.5500    21.9210     6.2550 HW2           1 RES     
    7202 OW          35.7950    33.2070     3.7510 OW            1 RES     
    7203 HW1         36.5710    32.5830     3.6610 HW1           1 RES     
    7204 HW2         36.1290    34.1480     3.8080 HW2           1 RES     
    7205 OW          27.8890    34.4920    10.4800 OW            1 RES     
    7206 HW1         27.2630    35.2710    10.4580 HW1           1 RES     
    7207 HW2         27.3640    33.6420    10.5130 HW2           1 RES     
    7208 OW          30.1660     7.1750     4.1190 OW            1 RES     
    7209 HW1         29.2230     6.8450     4.1650 HW1           1 RES     
    7210 HW2         30.3570     7.7540     4.9120 HW2           1 RES     
    7211 OW          27.6490    -0.8870    15.1930 OW            1 RES     
    7212 HW1         28.1040    -0.5040    14.3900 HW1           1 RES     
    7213 HW2         26.8010    -1.3370    14.9130 HW2           1 RES     
    7214 OW          14.3570     3.4270    17.2460 OW            1 RES     
    7215 HW1         15.1170     4.0750    17.2380 HW1           1 RES     
    7216 HW2         14.7140     2.4930    17.2600 HW2           1 RES     
    7217 OW           8.1600    27.9890     2.9840 OW            1 RES     
    7218 HW1          7.2800    27.7630     3.4000 HW1           1 RES     
    7219 HW2          8.8970    27.5740     3.5180 HW2           1 RES     
    7220 OW          -4.3110    31.6970     4.6730 OW            1 RES     
    7221 HW1         -3.7520    30.8690     4.6360 HW1           1 RES     
    7222 HW2         -3.8790    32.4160     4.1270 HW2           1 RES     
    7223 OW          38.9540     7.9110     9.9350 OW            1 RES     
    7224 HW1         38.1170     7.3860    10.0850 HW1           1 RES     
    7225 HW2         38.7280     8.7820     9.4980 HW2           1 RES     
    7226 OW          32.7180    -0.7950    11.3320 OW            1 RES     
    7227 HW1         32.7990     0.2000    11.3120 HW1           1 RES     
    7228 HW2         33.6300    -1.2050    11.3190 HW2           1 RES     
    7229 OW          44.3420    25.3030     9.2270 OW            1 RES     
    7230 HW1         44.5680    25.4210     8.2610 HW1           1 RES     
    7231 HW2         44.3580    26.1930     9.6840 HW2           1 RES     
    7232 OW          -6.7730     6.2440     8.4320 OW            1 RES     
    7233 HW1         -6.0560     5.7480     8.9210 HW1           1 RES     
    7234 HW2         -6.6590     6.1100     7.4470 HW2           1 RES     
    7235 OW          37.3580     4.9710     7.1190 OW            1 RES     
    7236 HW1         38.3200     4.7690     6.9370 HW1           1 RES     
    7237 HW2         37.2670     5.3710     8.0310 HW2           1 RES     
    7238 OW           3.0170    17.6010    11.2050 OW            1 RES     
    7239 HW1          3.9560    17.2970    11.3600 HW1           1 RES     
    7240 HW2          2.3850    16.8550    11.4160 HW2           1 RES     
    7241 OW          -0.5270    -1.2010    17.2730 OW            1 RES     
    7242 HW1         -0.7660    -2.1710    17.2410 HW1           1 RES     
    7243 HW2          0.4620    -1.0970    17.1670 HW2           1 RES     
    7244 OW          36.7600    17.3380     8.5020 OW            1 RES     
    7245 HW1         37.0300    16.4370     8.8410 HW1           1 RES     
    7246 HW2         37.5770    17.8690     8.2780 HW2           1 RES     
    7247 OW          23.5280    40.0510     6.4480 OW            1 RES     
    7248 HW1         24.3130    40.5250     6.8440 HW1           1 RES     
    7249 HW2         23.0910    39.4850     7.1480 HW2           1 RES     
    7250 OW          23.4230    13.9450    16.8480 OW            1 RES     
    7251 HW1         23.1640    13.0700    17.2550 HW1           1 RES     
    7252 HW2         22.8720    14.6770    17.2500 HW2           1 RES     
    7253 OW          11.7840    33.4120     8.2150 OW            1 RES     
    7254 HW1         10.8800    33.6780     8.5480 HW1           1 RES     
    7255 HW2         12.4320    34.1570     8.3760 HW2           1 RES     
    7256 OW          41.2040    11.3310     9.5250 OW            1 RES     
    7257 HW1         40.2940    11.6330     9.8050 HW1           1 RES     
    7258 HW2         41.3550    10.3920     9.8350 HW2           1 RES     
    7259 OW          25.1950    28.4790    14.3380 OW            1 RES     
    7260 HW1         24.4830    27.7950    14.4940 HW1           1 RES     
    7261 HW2         24.7830    29.3900    14.3140 HW2           1 RES     
    7262 OW          31.3500     1.5190    15.2830 OW            1 RES     
    7263 HW1         30.8620     0.7750    15.7380 HW1           1 RES     
    7264 HW2         32.1440     1.1510    14.7990 HW2           1 RES     
    7265 OW          44.3370    20.9370    13.1710 OW            1 RES     
    7266 HW1         43.5340    21.4320    13.5020 HW1           1 RES     
    7267 HW2         44.1390    19.9570    13.1480 HW2           1 RES     
    7268 OW          27.9880    -2.9230    10.0460 OW            1 RES     
    7269 HW1         27.2550    -3.4860    10.4270 HW1           1 RES     
    7270 HW2         28.5870    -3.4930     9.4820 HW2           1 RES     
    7271 OW          20.2560    -2.5040    13.2590 OW            1 RES     
    7272 HW1         19.4730    -3.1150    13.1530 HW1           1 RES     
    7273 HW2         21.0610    -3.0360    13.5250 HW2           1 RES     
    7274 OW          41.7820    14.7760     3.9010 OW            1 RES     
    7275 HW1         42.4350    14.0200     3.9450 HW1           1 RES     
    7276 HW2         42.2780    15.6410     3.8210 HW2           1 RES     
    7277 OW          32.2630     2.0260     8.4520 OW            1 RES     
    7278 HW1         31.7000     2.4780     7.7610 HW1           1 RES     
    7279 HW2         32.6240     2.7090     9.0880 HW2           1 RES     
    7280 OW          27.8290    34.6080    15.3330 OW            1 RES     
    7281 HW1         27.4750    33.8430    14.7960 HW1           1 RES     
    7282 HW2         27.2390    34.7600    16.1260 HW2           1 RES     
    7283 OW          31.1040    11.2230     5.2370 OW            1 RES     
    7284 HW1         30.5600    10.9150     6.0170 HW1           1 RES     
    7285 HW2         30.6780    12.0310     4.8320 HW2           1 RES     
    7286 OW          42.0110     8.3560     4.0560 OW            1 RES     
    7287 HW1         41.9870     8.4940     5.0450 HW1           1 RES     
    7288 HW2         42.4250     9.1540     3.6180 HW2           1 RES     
    7289 OW           8.9000    -2.0870    15.1990 OW            1 RES     
    7290 HW1          8.1310    -2.4340    14.6630 HW1           1 RES     
    7291 HW2          8.7490    -2.2880    16.1680 HW2           1 RES     
    7292 OW          44.3210     3.5630     3.1540 OW            1 RES     
    7293 HW1         43.8040     2.7200     3.0080 HW1           1 RES     
    7294 HW2         43.7840     4.3430     2.8330 HW2           1 RES     
    7295 OW          42.9090    27.5970    12.3960 OW            1 RES     
    7296 HW1         43.3880    27.5350    13.2710 HW1           1 RES     
    7297 HW2         42.0980    28.1740    12.5000 HW2           1 RES     
    7298 OW          14.2800     7.7250    15.2560 OW            1 RES     
    7299 HW1         14.0570     7.7590    16.2290 HW1           1 RES     
    7300 HW2         14.2960     8.6530    14.8840 HW2           1 RES     
    7301 OW          33.6150    13.5460     9.4800 OW            1 RES     
    7302 HW1         33.6690    13.3590     8.5000 HW1           1 RES     
    7303 HW2         33.1680    12.7800     9.9420 HW2           1 RES     
    7304 OW          17.0130    16.0540     5.4480 OW            1 RES     
    7305 HW1         17.2760    15.4270     4.7150 HW1           1 RES     
    7306 HW2         16.8840    15.5400     6.2960 HW2           1 RES     
    7307 OW          27.6640    35.0290     4.1940 OW            1 RES     
    7308 HW1         28.6420    34.8250     4.2290 HW1           1 RES     
    7309 HW2         27.1480    34.1760     4.1160 HW2           1 RES     
    7310 OW          15.7350     4.5830     7.3250 OW            1 RES     
    7311 HW1         15.9720     3.6390     7.0990 HW1           1 RES     
    7312 HW2         15.6960     5.1270     6.4860 HW2           1 RES     
    7313 OW          -5.4880    36.6300    10.5980 OW            1 RES     
    7314 HW1         -5.4800    36.6770     9.5990 HW1           1 RES     
    7315 HW2         -4.6780    37.0920    10.9600 HW2           1 RES     
    7316 OW          28.9370    40.6100     9.6020 OW            1 RES     
    7317 HW1         29.4380    40.9840     8.8230 HW1           1 RES     
    7318 HW2         28.2130    41.2450     9.8700 HW2           1 RES     
    7319 OW          -4.6510    12.0470    12.4870 OW            1 RES     
    7320 HW1         -3.8780    11.4140    12.5070 HW1           1 RES     
    7321 HW2         -4.9700    12.1560    11.5460 HW2           1 RES     
    7322 OW          17.3190     9.8410     9.8720 OW            1 RES     
    7323 HW1         17.6650     9.8050    10.8090 HW1           1 RES     
    7324 HW2         17.3460     8.9250     9.4710 HW2           1 RES     
    7325 OW          37.7270     3.2150     8.3960 OW            1 RES     
    7326 HW1         38.2600     2.7050     7.7230 HW1           1 RES     
    7327 HW2         36.7970     2.8470     8.4340 HW2           1 RES     
    7328 OW           7.5480    21.0550     6.6640 OW            1 RES     
    7329 HW1          6.8130    21.4190     6.0940 HW1           1 RES     
    7330 HW2          7.3010    21.1490     7.6290 HW2           1 RES     
    7331 OW          29.9790    23.6070    10.8530 OW            1 RES     
    7332 HW1         30.7950    24.0590    11.2110 HW1           1 RES     
    7333 HW2         29.9660    22.6540    11.1560 HW2           1 RES     
    7334 OW          26.2140    10.5230    17.0250 OW            1 RES     
    7335 HW1         26.8140     9.7630    17.2730 HW1           1 RES     
    7336 HW2         26.4700    10.8700    16.1230 HW2           1 RES     
    7337 OW          19.0680    41.0220     5.3110 OW            1 RES     
    7338 HW1         18.3970    41.5030     4.7480 HW1           1 RES     
    7339 HW2         18.9610    40.0350     5.1890 HW2           1 RES     
    7340 OW          -2.5520    42.0290     8.5110 OW            1 RES     
    7341 HW1         -2.7770    42.6470     9.2640 HW1           1 RES     
    7342 HW2         -3.0320    41.1600     8.6370 HW2           1 RES     
    7343 OW           3.1550    28.9370    12.6620 OW            1 RES     
    7344 HW1          3.1920    28.9110    11.6640 HW1           1 RES     
    7345 HW2          2.5940    28.1780    12.9950 HW2           1 RES     
    7346 OW           7.5830     6.3310     3.7070 OW            1 RES     
    7347 HW1          8.4950     6.6320     3.4310 HW1           1 RES     
    7348 HW2          6.9920     7.1270     3.8310 HW2           1 RES     
    7349 OW          36.9800    -2.0220     5.8870 OW            1 RES     
    7350 HW1         36.4940    -2.0420     5.0140 HW1           1 RES     
    7351 HW2         37.9530    -2.1930     5.7320 HW2           1 RES     
    7352 OW          35.9860     8.1450    12.4580 OW            1 RES     
    7353 HW1         35.2770     8.4060    11.8040 HW1           1 RES     
    7354 HW2         36.8750     8.4670    12.1320 HW2           1 RES     
    7355 OW          41.7520    36.4380     7.1070 OW            1 RES     
    7356 HW1         42.0320    35.4980     6.9120 HW1           1 RES     
    7357 HW2         41.1890    36.4540     7.9330 HW2           1 RES     
    7358 OW          17.2930    30.2400     5.5630 OW            1 RES     
    7359 HW1         17.2420    29.2620     5.3620 HW1           1 RES     
    7360 HW2         18.2380    30.4890     5.7740 HW2           1 RES     
    7361 OW           2.7390    36.2340    12.0900 OW            1 RES     
    7362 HW1          3.0050    35.2910    12.2840 HW1           1 RES     
    7363 HW2          2.4040    36.6660    12.9270 HW2           1 RES     
    7364 OW          37.1630    14.5290     7.1680 OW            1 RES     
    7365 HW1         37.4970    15.2420     6.5510 HW1           1 RES     
    7366 HW2         37.7190    14.5200     7.9990 HW2           1 RES     
    7367 OW           0.4250    33.2880     5.4240 OW            1 RES     
    7368 HW1         -0.5220    33.4560     5.6940 HW1           1 RES     
    7369 HW2          0.7890    34.0970     4.9610 HW2           1 RES     
    7370 OW          44.4730    16.8030     3.1020 OW            1 RES     
    7371 HW1         43.8890    16.9100     2.2980 HW1           1 RES     
    7372 HW2         45.1090    16.0450     2.9550 HW2           1 RES     
    7373 OW          25.5150    37.6380     6.0870 OW            1 RES     
    7374 HW1         25.3750    36.6480     6.0990 HW1           1 RES     
    7375 HW2         24.6720    38.0980     6.3660 HW2           1 RES     
    7376 OW          14.0320    21.6040    14.8610 OW            1 RES     
    7377 HW1         14.8480    22.1370    15.0830 HW1           1 RES     
    7378 HW2         13.2580    21.9400    15.3970 HW2           1 RES     
    7379 OW          32.6490    35.4670     5.2620 OW            1 RES     
    7380 HW1         32.1170    34.8480     5.8390 HW1           1 RES     
    7381 HW2         33.5410    35.0580     5.0670 HW2           1 RES     
    7382 OW           0.8210    13.2830    13.9860 OW            1 RES     
    7383 HW1          1.5290    12.8650    14.5540 HW1           1 RES     
    7384 HW2          0.7730    12.8060    13.1080 HW2           1 RES     
    7385 OW          32.7220    34.2430    11.7620 OW            1 RES     
    7386 HW1         33.0570    34.9520    11.1430 HW1           1 RES     
    7387 HW2         33.2230    33.3930    11.5990 HW2           1 RES     
    7388 OW          34.3510    34.8240     7.4590 OW            1 RES     
    7389 HW1         33.4300    35.1950     7.5700 HW1           1 RES     
    7390 HW2         34.9480    35.5240     7.0660 HW2           1 RES     
    7391 OW          45.0920    28.7320    11.6390 OW            1 RES     
    7392 HW1         44.5490    28.1470    11.0380 HW1           1 RES     
    7393 HW2         44.4920    29.1760    12.3040 HW2           1 RES     
    7394 OW          32.3560    -3.2050     9.9190 OW            1 RES     
    7395 HW1         33.1500    -2.7970     9.4700 HW1           1 RES     
    7396 HW2         32.3390    -2.9320    10.8810 HW2           1 RES     
    7397 OW          35.1570    30.2700     5.2830 OW            1 RES     
    7398 HW1         35.7320    29.5330     5.6370 HW1           1 RES     
    7399 HW2         34.8990    30.8810     6.0310 HW2           1 RES     
    7400 OW          29.1820     9.5320    11.6920 OW            1 RES     
    7401 HW1         30.0590     9.6590    12.1550 HW1           1 RES     
    7402 HW2         28.7910    10.4240    11.4670 HW2           1 RES     
    7403 OW          13.6790     2.3980    10.6990 OW            1 RES     
    7404 HW1         14.2010     3.2210    10.4790 HW1           1 RES     
    7405 HW2         14.3070     1.6330    10.8440 HW2           1 RES     
    7406 OW          38.8440    23.0600     5.4860 OW            1 RES     
    7407 HW1         38.3100    22.4010     4.9580 HW1           1 RES     
    7408 HW2         38.2260    23.6940     5.9520 HW2           1 RES     
    7409 OW          -5.7830    27.0060    17.0980 OW            1 RES     
    7410 HW1         -6.7720    27.0930    17.2120 HW1           1 RES     
    7411 HW2         -5.5840    26.5960    16.2080 HW2           1 RES     
    7412 OW          -1.2440    21.1720     9.8660 OW            1 RES     
    7413 HW1         -1.6830    20.5300     9.2380 HW1           1 RES     
    7414 HW2         -0.7120    20.6650    10.5450 HW2           1 RES     
    7415 OW          -3.2320     3.5140    11.6420 OW            1 RES     
    7416 HW1         -2.2730     3.3640    11.8820 HW1           1 RES     
    7417 HW2         -3.5450     2.7760    11.0430 HW2           1 RES     
    7418 OW          33.4320     5.0520    12.2450 OW            1 RES     
    7419 HW1         33.5930     5.7640    11.5630 HW1           1 RES     
    7420 HW2         34.1600     4.3680    12.1920 HW2           1 RES     
    7421 OW          44.1390    16.7600     7.0710 OW            1 RES     
    7422 HW1         44.3770    15.8460     7.3970 HW1           1 RES     
    7423 HW2         44.9300    17.1690     6.6170 HW2           1 RES     
    7424 OW          26.6770    17.9080    17.2720 OW            1 RES     
    7425 HW1         26.0120    17.2140    16.9980 HW1           1 RES     
    7426 HW2         27.0550    18.3480    16.4570 HW2           1 RES     
    7427 OW          37.9180    12.6470     5.3670 OW            1 RES     
    7428 HW1         37.3190    12.5620     6.1630 HW1           1 RES     
    7429 HW2         38.0730    13.6160     5.1700 HW2           1 RES     
    7430 OW           4.5390    23.3850     4.6810 OW            1 RES     
    7431 HW1          4.2050    22.4450     4.6100 HW1           1 RES     
    7432 HW2          3.7640    24.0170     4.6550 HW2           1 RES     
    7433 OW           4.7630    18.3420    13.6530 OW            1 RES     
    7434 HW1          4.2400    17.4990    13.5340 HW1           1 RES     
    7435 HW2          4.1910    19.1270    13.4160 HW2           1 RES     
    7436 OW          27.6260    38.5280     2.8590 OW            1 RES     
    7437 HW1         26.9080    38.1350     2.2860 HW1           1 RES     
    7438 HW2         28.5200    38.3420     2.4500 HW2           1 RES     
    7439 OW          43.5520    36.9900     5.0410 OW            1 RES     
    7440 HW1         44.3950    37.2440     5.5150 HW1           1 RES     
    7441 HW2         42.9160    37.7610     5.0560 HW2           1 RES     
    7442 OW           9.9810    30.4300    13.1890 OW            1 RES     
    7443 HW1         10.9400    30.6750    13.0530 HW1           1 RES     
    7444 HW2          9.4340    31.2620    13.2860 HW2           1 RES     
    7445 OW          39.9550     7.5690    12.1470 OW            1 RES     
    7446 HW1         40.3940     8.4670    12.1540 HW1           1 RES     
    7447 HW2         38.9610     7.6840    12.1230 HW2           1 RES     
    7448 OW           7.3100    35.2320     2.3720 OW            1 RES     
    7449 HW1          6.4880    35.7820     2.5160 HW1           1 RES     
    7450 HW2          7.0500    34.2870     2.1750 HW2           1 RES     
    7451 OW          -2.3110    23.0530    16.2720 OW            1 RES     
    7452 HW1         -1.8880    22.7800    17.1360 HW1           1 RES     
    7453 HW2         -1.6520    22.9380    15.5280 HW2           1 RES     
    7454 OW           3.6610    19.7930    16.0880 OW            1 RES     
    7455 HW1          3.2870    20.0540    15.1980 HW1           1 RES     
    7456 HW2          3.3800    18.8580    16.3070 HW2           1 RES     
    7457 OW          23.3140    33.0820    14.2520 OW            1 RES     
    7458 HW1         24.2980    33.1560    14.0990 HW1           1 RES     
    7459 HW2         22.9040    32.5220    13.5310 HW2           1 RES     
    7460 OW          -6.7430    22.9540     9.1080 OW            1 RES     
    7461 HW1         -6.7730    21.9600     9.2070 HW1           1 RES     
    7462 HW2         -6.1690    23.1940     8.3250 HW2           1 RES     
    7463 OW          40.6570    41.5010    12.4860 OW            1 RES     
    7464 HW1         40.8010    40.6360    12.0060 HW1           1 RES     
    7465 HW2         41.5400    41.9340    12.6660 HW2           1 RES     
    7466 OW           8.4950    33.4280     4.2720 OW            1 RES     
    7467 HW1          9.4310    33.1300     4.4570 HW1           1 RES     
    7468 HW2          8.0480    33.6750     5.1320 HW2           1 RES     
    7469 OW           2.3820    30.2040    14.3310 OW            1 RES     
    7470 HW1          1.5710    29.7110    14.6430 HW1           1 RES     
    7471 HW2          2.1130    31.0980    13.9730 HW2           1 RES     
    7472 OW          27.5070    21.5030     5.5340 OW            1 RES     
    7473 HW1         28.1950    22.2250     5.4830 HW1           1 RES     
    7474 HW2         27.9280    20.6230     5.3120 HW2           1 RES     
    7475 OW           1.7040    32.0800    15.9620 OW            1 RES     
    7476 HW1          2.5860    31.6350    16.1100 HW1           1 RES     
    7477 HW2          0.9810    31.3900    15.9370 HW2           1 RES     
    7478 OW          -6.2940    17.7820    14.9810 OW            1 RES     
    7479 HW1         -5.4640    17.4710    14.5190 HW1           1 RES     
    7480 HW2         -6.3420    17.3720    15.8920 HW2           1 RES     
    7481 OW          43.1430     1.7190     8.8660 OW            1 RES     
    7482 HW1         44.0860     1.4990     8.6180 HW1           1 RES     
    7483 HW2         42.5360     1.4900     8.1050 HW2           1 RES     
    7484 OW          -1.0590    25.7450    17.2660 OW            1 RES     
    7485 HW1         -0.5890    26.6270    17.2630 HW1           1 RES     
    7486 HW2         -0.3840    25.0070    17.2710 HW2           1 RES     
    7487 OW          43.3740    22.5310     7.9750 OW            1 RES     
    7488 HW1         44.3450    22.5450     8.2110 HW1           1 RES     
    7489 HW2         43.2480    22.9100     7.0580 HW2           1 RES     
    7490 OW          10.5480    16.6110     2.6490 OW            1 RES     
    7491 HW1         10.4700    15.9070     3.3550 HW1           1 RES     
    7492 HW2         10.0920    16.2990     1.8150 HW2           1 RES     
    7493 OW           5.1230    19.5840    11.2120 OW            1 RES     
    7494 HW1          5.1660    20.3420    11.8620 HW1           1 RES     
    7495 HW2          4.1780    19.4580    10.9080 HW2           1 RES     
    7496 OW          36.9380    37.9950     4.4820 OW            1 RES     
    7497 HW1         37.9210    37.9250     4.3190 HW1           1 RES     
    7498 HW2         36.5700    37.0900     4.6990 HW2           1 RES     
    7499 OW          17.6750    15.7450    12.7460 OW            1 RES     
    7500 HW1         17.8200    14.7600    12.8300 HW1           1 RES     
    7501 HW2         17.6430    15.9970    11.7790 HW2           1 RES     
    7502 OW          41.7380    42.7410     7.8560 OW            1 RES     
    7503 HW1         41.6590    41.7780     8.1120 HW1           1 RES     
    7504 HW2         41.5860    43.3140     8.6610 HW2           1 RES     
    7505 OW           0.3710    18.5530    10.7530 OW            1 RES     
    7506 HW1          1.0990    18.8620    11.3640 HW1           1 RES     
    7507 HW2          0.5030    17.5840    10.5400 HW2           1 RES     
    7508 OW          12.1470    14.1930    10.5970 OW            1 RES     
    7509 HW1         12.9140    14.2250     9.9570 HW1           1 RES     
    7510 HW2         11.2860    14.2260    10.0880 HW2           1 RES     
    7511 OW          19.4130    14.0660    14.5470 OW            1 RES     
    7512 HW1         19.0910    13.8770    15.4740 HW1           1 RES     
    7513 HW2         20.3200    13.6640    14.4210 HW2           1 RES     
    7514 OW          19.6060    41.2260    16.5490 OW            1 RES     
    7515 HW1         18.6350    41.1680    16.3210 HW1           1 RES     
    7516 HW2         20.0960    41.6870    15.8080 HW2           1 RES     
    7517 OW           2.8730    34.2890     5.6410 OW            1 RES     
    7518 HW1          3.1010    34.8860     4.8720 HW1           1 RES     
    7519 HW2          3.0790    33.3400     5.3990 HW2           1 RES     
    7520 OW           3.3500    13.4670     8.6890 OW            1 RES     
    7521 HW1          2.6470    12.8880     8.2780 HW1           1 RES     
    7522 HW2          3.1430    14.4280     8.5020 HW2           1 RES     
    7523 OW          22.0760    40.9550    16.4280 OW            1 RES     
    7524 HW1         22.3970    41.8710    16.1910 HW1           1 RES     
    7525 HW2         22.6450    40.2730    15.9700 HW2           1 RES     
    7526 OW          10.5080     9.0920    12.3210 OW            1 RES     
    7527 HW1         10.7260     9.9850    12.7130 HW1           1 RES     
    7528 HW2         10.9150     9.0190    11.4100 HW2           1 RES     
    7529 OW          25.6500    22.6260     9.9260 OW            1 RES     
    7530 HW1         26.3280    22.2660    10.5660 HW1           1 RES     
    7531 HW2         25.7640    22.1860     9.0350 HW2           1 RES     
    7532 OW          43.0750     7.3490    10.6870 OW            1 RES     
    7533 HW1         42.1490     6.9840    10.7720 HW1           1 RES     
    7534 HW2         43.0320     8.3020    10.3880 HW2           1 RES     
    7535 OW          13.5750    30.9060    14.8410 OW            1 RES     
    7536 HW1         14.3210    31.4430    15.2320 HW1           1 RES     
    7537 HW2         13.1680    31.4060    14.0770 HW2           1 RES     
    7538 OW          16.0550    31.0970    13.0390 OW            1 RES     
    7539 HW1         16.0760    32.0930    12.9500 HW1           1 RES     
    7540 HW2         15.1310    30.8050    13.2880 HW2           1 RES     
    7541 OW          26.1000    -2.5340     4.2480 OW            1 RES     
    7542 HW1         25.4650    -3.3050     4.2510 HW1           1 RES     
    7543 HW2         25.5850    -1.6770     4.2550 HW2           1 RES     
    7544 OW           4.4830    30.8550    14.2880 OW            1 RES     
    7545 HW1          5.1610    31.5550    14.5100 HW1           1 RES     
    7546 HW2          4.9300    29.9610    14.2390 HW2           1 RES     
    7547 OW          27.3390    28.9830     8.8310 OW            1 RES     
    7548 HW1         28.2540    28.7730     9.1730 HW1           1 RES     
    7549 HW2         26.9560    28.1730     8.3850 HW2           1 RES     
    7550 OW          22.8120    41.4620    11.1110 OW            1 RES     
    7551 HW1         22.2550    42.1810    10.6970 HW1           1 RES     
    7552 HW2         22.4220    40.5680    10.8890 HW2           1 RES     
    7553 OW          -6.7560    20.3490     2.5650 OW            1 RES     
    7554 HW1         -6.2330    20.3040     3.4150 HW1           1 RES     
    7555 HW2         -6.1290    20.3480     1.7860 HW2           1 RES     
    7556 OW          21.9570    10.5810    14.5180 OW            1 RES     
    7557 HW1         21.8460    10.5200    15.5090 HW1           1 RES     
    7558 HW2         21.0570    10.6230    14.0830 HW2           1 RES     
    7559 OW          14.7190    29.2030    11.4890 OW            1 RES     
    7560 HW1         13.7250    29.3010    11.5100 HW1           1 RES     
    7561 HW2         15.1350    30.0700    11.2140 HW2           1 RES     
    7562 OW          36.7200    29.4750    16.0240 OW            1 RES     
    7563 HW1         36.1770    30.1340    15.5060 HW1           1 RES     
    7564 HW2         37.4120    29.9590    16.5590 HW2           1 RES     
    7565 OW          -6.3980    -1.9210     3.0400 OW            1 RES     
    7566 HW1         -5.4750    -2.3030     3.0030 HW1           1 RES     
    7567 HW2         -6.5480    -1.4970     3.9330 HW2           1 RES     
    7568 OW          24.9160    29.3500    10.8860 OW            1 RES     
    7569 HW1         25.1830    28.7820    11.6640 HW1           1 RES     
    7570 HW2         25.5430    29.1890    10.1240 HW2           1 RES     
    7571 OW           6.5630    -0.1800     5.5450 OW            1 RES     
    7572 HW1          7.4330    -0.0330     6.0140 HW1           1 RES     
    7573 HW2          6.2570    -1.1210     5.6940 HW2           1 RES     
    7574 OW          40.1080    26.2720     4.5680 OW            1 RES     
    7575 HW1         39.2170    26.2590     5.0210 HW1           1 RES     
    7576 HW2         40.7220    25.6250     5.0200 HW2           1 RES     
    7577 OW          14.5860     8.1990    12.0810 OW            1 RES     
    7578 HW1         13.7810     7.6850    11.7860 HW1           1 RES     
    7579 HW2         15.2870     7.5640    12.4060 HW2           1 RES     
    7580 OW          36.9060    16.4300    11.9980 OW            1 RES     
    7581 HW1         36.1370    16.9310    12.3940 HW1           1 RES     
    7582 HW2         36.7230    16.2470    11.0320 HW2           1 RES     
    7583 OW          16.1150    38.1940    15.9890 OW            1 RES     
    7584 HW1         16.1230    37.5420    16.7460 HW1           1 RES     
    7585 HW2         16.0080    39.1220    16.3470 HW2           1 RES     
    7586 OW          15.4450     1.6850     8.0960 OW            1 RES     
    7587 HW1         16.3050     1.9830     8.5090 HW1           1 RES     
    7588 HW2         15.6120     0.8890     7.5140 HW2           1 RES     
    7589 OW          39.9460    18.9500    10.8870 OW            1 RES     
    7590 HW1         40.8610    18.5580    10.7990 HW1           1 RES     
    7591 HW2         40.0020    19.9460    10.8200 HW2           1 RES     
    7592 OW          14.9290    38.0000    10.1510 OW            1 RES     
    7593 HW1         14.4420    38.4930    10.8710 HW1           1 RES     
    7594 HW2         14.3310    37.8950     9.3560 HW2           1 RES     
    7595 OW           3.9030    15.2540    16.1360 OW            1 RES     
    7596 HW1          4.5610    14.5420    16.3790 HW1           1 RES     
    7597 HW2          3.3740    14.9620    15.3390 HW2           1 RES     
    7598 OW          11.4390    37.6080    10.6060 OW            1 RES     
    7599 HW1         12.2090    37.8150    10.0030 HW1           1 RES     
    7600 HW2         11.5140    36.6660    10.9330 HW2           1 RES     
    7601 OW           0.2990    31.8050     8.3300 OW            1 RES     
    7602 HW1          0.9260    32.4130     8.8140 HW1           1 RES     
    7603 HW2          0.8130    31.0480     7.9250 HW2           1 RES     
    7604 OW          32.0140     1.8150     4.0960 OW            1 RES     
    7605 HW1         32.7620     1.6190     4.7300 HW1           1 RES     
    7606 HW2         32.0930     1.2220     3.2940 HW2           1 RES     
    7607 OW          16.7040    14.8540     2.1480 OW            1 RES     
    7608 HW1         15.8040    14.4210     2.1140 HW1           1 RES     
    7609 HW2         17.3940    14.2190     1.7990 HW2           1 RES     
    7610 OW          10.0810    22.1600     3.3810 OW            1 RES     
    7611 HW1         10.2860    21.4510     4.0550 HW1           1 RES     
    7612 HW2          9.1620    22.5200     3.5420 HW2           1 RES     
    7613 OW          39.4300    22.1900    10.3330 OW            1 RES     
    7614 HW1         39.2070    22.2320     9.3600 HW1           1 RES     
    7615 HW2         39.8640    23.0460    10.6140 HW2           1 RES     
    7616 OW          26.3370    40.4010     3.7340 OW            1 RES     
    7617 HW1         26.2780    40.2140     4.7140 HW1           1 RES     
    7618 HW2         25.5000    40.0910     3.2840 HW2           1 RES     
    7619 OW          -0.7700     0.6460    10.5330 OW            1 RES     
    7620 HW1         -1.6790     0.7290    10.9390 HW1           1 RES     
    7621 HW2         -0.7090     1.2370     9.7290 HW2           1 RES     
    7622 OW          -1.9510    19.9250     6.5030 OW            1 RES     
    7623 HW1         -1.5460    19.1200     6.0710 HW1           1 RES     
    7624 HW2         -2.9030    19.7320     6.7420 HW2           1 RES     
    7625 OW          13.1730    10.5580    12.1310 OW            1 RES     
    7626 HW1         12.4060    11.1360    11.8560 HW1           1 RES     
    7627 HW2         12.8530     9.6210    12.2680 HW2           1 RES     
    7628 OW           7.5450    38.0280    10.9880 OW            1 RES     
    7629 HW1          8.3310    37.4160    10.9120 HW1           1 RES     
    7630 HW2          7.6350    38.7720    10.3260 HW2           1 RES     
    7631 OW          -5.3470    22.0820    12.1710 OW            1 RES     
    7632 HW1         -5.6860    21.2430    11.7470 HW1           1 RES     
    7633 HW2         -6.1200    22.6400    12.4740 HW2           1 RES     
    7634 OW          16.7980    37.4100    12.0810 OW            1 RES     
    7635 HW1         16.9360    36.8100    11.2940 HW1           1 RES     
    7636 HW2         16.8910    38.3640    11.7930 HW2           1 RES     
    7637 OW          38.8450    36.0120    10.0010 OW            1 RES     
    7638 HW1         37.8510    36.0150    10.1080 HW1           1 RES     
    7639 HW2         39.0770    35.8250     9.0460 HW2           1 RES     
    7640 OW          18.2190     1.2870    10.2460 OW            1 RES     
    7641 HW1         18.1580     1.0750     9.2720 HW1           1 RES     
    7642 HW2         18.9780     1.9180    10.4040 HW2           1 RES     
    7643 OW          40.7760    26.0250     7.9550 OW            1 RES     
    7644 HW1         41.1510    25.3010     8.5320 HW1           1 RES     
    7645 HW2         39.9390    26.3830     8.3700 HW2           1 RES     
    7646 OW          13.0220    14.4050    16.8200 OW            1 RES     
    7647 HW1         13.6970    14.9430    16.3160 HW1           1 RES     
    7648 HW2         13.0190    13.4660    16.4750 HW2           1 RES     
    7649 OW           5.9290    35.5200     4.6300 OW            1 RES     
    7650 HW1          5.4510    36.3580     4.3730 HW1           1 RES     
    7651 HW2          5.4510    34.7300     4.2440 HW2           1 RES     
    7652 OW          29.0460    16.2140    17.1080 OW            1 RES     
    7653 HW1         28.2780    15.6690    16.7730 HW1           1 RES     
    7654 HW2         28.7440    17.1550    17.2650 HW2           1 RES     
    7655 OW          34.1160     6.1250    16.3480 OW            1 RES     
    7656 HW1         35.1150     6.1490    16.3170 HW1           1 RES     
    7657 HW2         33.8080     5.1790    16.4580 HW2           1 RES     
    7658 OW          44.4440    12.9760    16.5030 OW            1 RES     
    7659 HW1         44.8240    12.6590    15.6350 HW1           1 RES     
    7660 HW2         44.2460    12.1900    17.0880 HW2           1 RES     
    7661 OW          31.1270    20.7410     4.8000 OW            1 RES     
    7662 HW1         30.2550    20.4780     5.2110 HW1           1 RES     
    7663 HW2         31.5990    21.3860     5.4010 HW2           1 RES     
    7664 OW          42.6790    22.0350     2.9470 OW            1 RES     
    7665 HW1         43.4120    21.3700     3.0870 HW1           1 RES     
    7666 HW2         42.5230    22.1600     1.9670 HW2           1 RES     
    7667 OW          32.4840    20.0860     8.9310 OW            1 RES     
    7668 HW1         33.2740    20.6900     9.0290 HW1           1 RES     
    7669 HW2         31.6580    20.6340     8.8030 HW2           1 RES     
    7670 OW           4.4340    35.3470     7.3000 OW            1 RES     
    7671 HW1          4.2870    34.3590     7.3240 HW1           1 RES     
    7672 HW2          5.2150    35.5550     6.7110 HW2           1 RES     
    7673 OW          -5.8020    30.8820     7.2800 OW            1 RES     
    7674 HW1         -6.1780    31.4340     8.0230 HW1           1 RES     
    7675 HW2         -6.0110    29.9170     7.4400 HW2           1 RES     
    7676 OW          21.2390    42.3210    14.0330 OW            1 RES     
    7677 HW1         21.1860    43.3090    13.8950 HW1           1 RES     
    7678 HW2         22.1960    42.0310    14.0060 HW2           1 RES     
    7679 OW          11.8210    33.0700    13.5690 OW            1 RES     
    7680 HW1         11.5720    32.8470    12.6270 HW1           1 RES     
    7681 HW2         11.2650    32.5260    14.1980 HW2           1 RES     
    7682 OW          11.1470    -1.0760    17.2420 OW            1 RES     
    7683 HW1         12.1360    -1.2170    17.2720 HW1           1 RES     
    7684 HW2         10.9490    -0.0950    17.2480 HW2           1 RES     
    7685 OW          25.1870    33.8480     3.0570 OW            1 RES     
    7686 HW1         24.4160    34.4410     2.8290 HW1           1 RES     
    7687 HW2         25.8800    33.9100     2.3380 HW2           1 RES     
    7688 OW          28.3080     6.9120     6.4180 OW            1 RES     
    7689 HW1         27.7190     6.3420     5.8470 HW1           1 RES     
    7690 HW2         28.4350     7.8040     5.9830 HW2           1 RES     
    7691 OW           0.1820    30.7700    12.2950 OW            1 RES     
    7692 HW1          1.0480    30.8280    11.8000 HW1           1 RES     
    7693 HW2          0.1640    31.4610    13.0180 HW2           1 RES     
    7694 OW          31.1030    11.5800     1.8080 OW            1 RES     
    7695 HW1         30.3310    12.2150     1.7860 HW1           1 RES     
    7696 HW2         31.9450    12.0850     1.9970 HW2           1 RES     
    7697 OW          39.3100    37.8820    14.7580 OW            1 RES     
    7698 HW1         38.4210    37.4270    14.7330 HW1           1 RES     
    7699 HW2         39.2340    38.7870    14.3400 HW2           1 RES     
    7700 OW          38.2950    35.9520    16.8500 OW            1 RES     
    7701 HW1         38.8320    35.4340    16.1850 HW1           1 RES     
    7702 HW2         37.3760    36.1080    16.4880 HW2           1 RES     
    7703 OW           5.9880     2.5900     3.8930 OW            1 RES     
    7704 HW1          6.5880     2.9150     4.6240 HW1           1 RES     
    7705 HW2          5.9710     3.2630     3.1530 HW2           1 RES     
    7706 OW          31.0300     9.4990    10.1550 OW            1 RES     
    7707 HW1         31.7740     9.7860    10.7570 HW1           1 RES     
    7708 HW2         30.4160    10.2710     9.9910 HW2           1 RES     
    7709 OW          43.0590    15.4620    16.4160 OW            1 RES     
    7710 HW1         43.7310    15.1760    15.7340 HW1           1 RES     
    7711 HW2         42.7180    16.3740    16.1870 HW2           1 RES     
    7712 OW          12.1630    22.8630    11.6840 OW            1 RES     
    7713 HW1         12.5560    22.7770    12.5990 HW1           1 RES     
    7714 HW2         12.7020    23.5130    11.1490 HW2           1 RES     
    7715 OW          34.5670    18.6270     8.5720 OW            1 RES     
    7716 HW1         34.0890    17.9070     8.0690 HW1           1 RES     
    7717 HW2         34.7000    18.3390     9.5210 HW2           1 RES     
    7718 OW          44.7120    19.6120     7.8170 OW            1 RES     
    7719 HW1         45.1090    20.5280     7.7740 HW1           1 RES     
    7720 HW2         43.7160    19.6770     7.7590 HW2           1 RES     
    7721 OW          20.9190    39.7540     8.1990 OW            1 RES     
    7722 HW1         21.4120    39.8610     9.0620 HW1           1 RES     
    7723 HW2         19.9360    39.8390     8.3640 HW2           1 RES     
    7724 OW          38.2480     6.7240     3.8560 OW            1 RES     
    7725 HW1         38.7140     7.5900     3.6800 HW1           1 RES     
    7726 HW2         37.5770     6.5530     3.1340 HW2           1 RES     
    7727 OW          37.4310    25.6480    13.9340 OW            1 RES     
    7728 HW1         38.1280    24.9320    13.9250 HW1           1 RES     
    7729 HW2         37.8710    26.5430    13.8610 HW2           1 RES     
    7730 OW           7.0350     5.3370     9.6890 OW            1 RES     
    7731 HW1          6.6530     5.7070     8.8430 HW1           1 RES     
    7732 HW2          8.0320     5.4120     9.6660 HW2           1 RES     
    7733 OW          -4.6890    21.2790     9.3880 OW            1 RES     
    7734 HW1         -3.8040    21.0530     8.9820 HW1           1 RES     
    7735 HW2         -4.6580    22.2060     9.7620 HW2           1 RES     
    7736 OW          32.3110    40.2640     3.7220 OW            1 RES     
    7737 HW1         32.2360    41.2410     3.5230 HW1           1 RES     
    7738 HW2         33.2760    40.0090     3.7860 HW2           1 RES     
    7739 OW           3.1040    33.8160    10.6550 OW            1 RES     
    7740 HW1          3.8320    33.1330    10.6170 HW1           1 RES     
    7741 HW2          2.3620    33.5480    10.0410 HW2           1 RES     
    7742 OW           8.3100    23.5430    13.2920 OW            1 RES     
    7743 HW1          8.2350    24.0970    14.1200 HW1           1 RES     
    7744 HW2          9.0590    22.8880    13.3960 HW2           1 RES     
    7745 OW          44.3230    23.4840    10.4710 OW            1 RES     
    7746 HW1         43.4930    22.9780    10.2380 HW1           1 RES     
    7747 HW2         45.1080    22.8640    10.4540 HW2           1 RES     
    7748 OW          22.9410     7.6390    14.8630 OW            1 RES     
    7749 HW1         22.3410     6.8690    14.6500 HW1           1 RES     
    7750 HW2         22.5770     8.4710    14.4450 HW2           1 RES     
    7751 OW          19.3860    26.1830    10.1260 OW            1 RES     
    7752 HW1         20.0090    25.4090    10.0200 HW1           1 RES     
    7753 HW2         18.8660    26.3120     9.2810 HW2           1 RES     
    7754 OW          26.9630     4.2050     2.7560 OW            1 RES     
    7755 HW1         27.4180     5.0450     3.0500 HW1           1 RES     
    7756 HW2         27.5660     3.4240     2.9180 HW2           1 RES     
    7757 OW          21.4900    34.9090    15.1630 OW            1 RES     
    7758 HW1         21.1420    35.6750    14.6240 HW1           1 RES     
    7759 HW2         20.7400    34.4990    15.6830 HW2           1 RES     
    7760 OW          24.9670    42.4920     3.4280 OW            1 RES     
    7761 HW1         25.6130    42.6450     2.6810 HW1           1 RES     
    7762 HW2         24.9130    43.3140     3.9960 HW2           1 RES     
    7763 OW          28.2160    27.1430    15.0300 OW            1 RES     
    7764 HW1         27.9730    27.9940    15.4950 HW1           1 RES     
    7765 HW2         28.0850    26.3730    15.6550 HW2           1 RES     
    7766 OW          36.6930     4.3880     4.4720 OW            1 RES     
    7767 HW1         36.7350     3.5130     4.9520 HW1           1 RES     
    7768 HW2         37.3050     5.0430     4.9170 HW2           1 RES     
    7769 OW          41.9350    14.3740     6.7700 OW            1 RES     
    7770 HW1         42.5090    14.6480     7.5410 HW1           1 RES     
    7771 HW2         41.3910    15.1550     6.4630 HW2           1 RES     
    7772 OW          20.0280    31.3550     7.8050 OW            1 RES     
    7773 HW1         20.6200    31.6480     8.5540 HW1           1 RES     
    7774 HW2         19.2810    30.7970     8.1680 HW2           1 RES     
    7775 OW          37.5190    31.7070    14.3380 OW            1 RES     
    7776 HW1         36.7370    31.4290    13.7820 HW1           1 RES     
    7777 HW2         37.3840    32.6450    14.6600 HW2           1 RES     
    7778 OW           9.3880    33.4460    11.6570 OW            1 RES     
    7779 HW1         10.1980    33.6560    11.1110 HW1           1 RES     
    7780 HW2          9.0370    32.5450    11.4000 HW2           1 RES     
    7781 OW          34.9580    31.6210    16.5760 OW            1 RES     
    7782 HW1         35.8270    32.0660    16.7900 HW1           1 RES     
    7783 HW2         34.8540    30.8020    17.1410 HW2           1 RES     
    7784 OW          26.9500    14.1410    13.6330 OW            1 RES     
    7785 HW1         27.7860    13.7550    14.0220 HW1           1 RES     
    7786 HW2         26.1680    13.5750    13.8930 HW2           1 RES     
    7787 OW          43.5020    30.9220    11.4040 OW            1 RES     
    7788 HW1         42.8370    30.9300    10.6580 HW1           1 RES     
    7789 HW2         44.0680    31.7460    11.3550 HW2           1 RES     
    7790 OW           7.4430     7.8010     1.7860 OW            1 RES     
    7791 HW1          7.7370     8.7550     1.8130 HW1           1 RES     
    7792 HW2          6.4440     7.7590     1.7960 HW2           1 RES     
    7793 OW          20.8100    15.5200    13.0040 OW            1 RES     
    7794 HW1         19.8670    15.5630    12.6770 HW1           1 RES     
    7795 HW2         21.2380    14.6760    12.6820 HW2           1 RES     
    7796 OW          12.5700    16.6260     8.6840 OW            1 RES     
    7797 HW1         11.8770    15.9140     8.5770 HW1           1 RES     
    7798 HW2         13.4680    16.2030     8.8020 HW2           1 RES     
    7799 OW          11.1560    42.3900     8.8710 OW            1 RES     
    7800 HW1         11.4300    43.0410     9.5780 HW1           1 RES     
    7801 HW2         10.1580    42.3460     8.8260 HW2           1 RES     
    7802 OW          28.4640    43.3130    16.1270 OW            1 RES     
    7803 HW1         28.2900    42.7610    16.9420 HW1           1 RES     
    7804 HW2         29.4020    43.1610    15.8150 HW2           1 RES     
    7805 OW          12.9000    33.0490     3.7350 OW            1 RES     
    7806 HW1         11.9830    32.6550     3.6880 HW1           1 RES     
    7807 HW2         13.5790    32.3150     3.7510 HW2           1 RES     
    7808 OW          20.4270    -0.1220    11.8640 OW            1 RES     
    7809 HW1         20.8070    -0.1980    12.7850 HW1           1 RES     
    7810 HW2         20.5070     0.8230    11.5460 HW2           1 RES     
    7811 OW          11.8400    33.5120     6.0180 OW            1 RES     
    7812 HW1         11.2790    34.3240     6.1780 HW1           1 RES     
    7813 HW2         12.8070    33.7670     6.0290 HW2           1 RES     
    7814 OW          29.7050    19.4990    10.8250 OW            1 RES     
    7815 HW1         29.8940    19.8810    11.7300 HW1           1 RES     
    7816 HW2         30.5540    19.4550    10.2980 HW2           1 RES     
    7817 OW          12.1470    37.9370    13.3670 OW            1 RES     
    7818 HW1         12.8470    38.6450    13.4590 HW1           1 RES     
    7819 HW2         11.2820    38.2710    13.7400 HW2           1 RES     
    7820 OW          41.8710    10.9090     7.4680 OW            1 RES     
    7821 HW1         42.3960    10.0870     7.6890 HW1           1 RES     
    7822 HW2         41.8670    11.0470     6.4780 HW2           1 RES     
    7823 OW          25.5920     9.3970    14.3940 OW            1 RES     
    7824 HW1         26.5820     9.5340    14.3790 HW1           1 RES     
    7825 HW2         25.1340    10.2830    14.4770 HW2           1 RES     
    7826 OW          27.8350    25.4500    11.8400 OW            1 RES     
    7827 HW1         28.0480    26.1540    12.5170 HW1           1 RES     
    7828 HW2         28.4080    24.6460    12.0020 HW2           1 RES     
    7829 OW          29.1820     9.8060     4.0320 OW            1 RES     
    7830 HW1         28.9880     8.9470     3.5590 HW1           1 RES     
    7831 HW2         29.0320     9.6870     5.0140 HW2           1 RES     
    7832 OW          26.9930    19.0080     2.0610 OW            1 RES     
    7833 HW1         27.3020    19.9580     2.0780 HW1           1 RES     
    7834 HW2         27.7630    18.4020     2.2620 HW2           1 RES     
    7835 OW           6.2530    39.7520    15.6770 OW            1 RES     
    7836 HW1          6.9730    40.1250    15.0930 HW1           1 RES     
    7837 HW2          5.8970    40.4740    16.2710 HW2           1 RES     
    7838 OW          -0.2930    28.0410    12.2660 OW            1 RES     
    7839 HW1          0.5350    28.5990    12.2960 HW1           1 RES     
    7840 HW2         -1.0900    28.6140    12.4600 HW2           1 RES     
    7841 OW          28.8090     7.4850     9.8440 OW            1 RES     
    7842 HW1         29.6060     7.1560    10.3500 HW1           1 RES     
    7843 HW2         28.8370     8.4830     9.7890 HW2           1 RES     
    7844 OW          -5.1250    14.5680     4.1040 OW            1 RES     
    7845 HW1         -5.1190    13.5690     4.0680 HW1           1 RES     
    7846 HW2         -6.0700    14.8950     4.1250 HW2           1 RES     
    7847 OW          10.1970    27.5490     8.5750 OW            1 RES     
    7848 HW1         10.5310    26.6730     8.9210 HW1           1 RES     
    7849 HW2          9.2940    27.4240     8.1650 HW2           1 RES     
    7850 OW          19.0310     1.1710    16.0300 OW            1 RES     
    7851 HW1         19.5230     1.9770    16.3590 HW1           1 RES     
    7852 HW2         18.6890     1.3430    15.1060 HW2           1 RES     
    7853 OW          12.8540    -4.3080    13.7850 OW            1 RES     
    7854 HW1         13.8490    -4.2940    13.6910 HW1           1 RES     
    7855 HW2         12.4330    -4.0660    12.9100 HW2           1 RES     
    7856 OW          -0.9870    18.3860     9.0120 OW            1 RES     
    7857 HW1         -0.2410    18.9640     8.6810 HW1           1 RES     
    7858 HW2         -1.3530    17.8470     8.2540 HW2           1 RES     
    7859 OW          -2.1030    40.1930    14.1030 OW            1 RES     
    7860 HW1         -1.1040    40.2120    14.1020 HW1           1 RES     
    7861 HW2         -2.4190    39.2440    14.1390 HW2           1 RES     
    7862 OW          31.9310    31.6290    15.1730 OW            1 RES     
    7863 HW1         32.2830    31.4380    14.2580 HW1           1 RES     
    7864 HW2         30.9910    31.9660    15.1060 HW2           1 RES     
    7865 OW          36.1780    26.5450     4.5680 OW            1 RES     
    7866 HW1         35.3070    26.3650     5.0220 HW1           1 RES     
    7867 HW2         36.3130    27.5330     4.4830 HW2           1 RES     
    7868 OW          40.0120     9.9640     3.5280 OW            1 RES     
    7869 HW1         40.4420    10.1520     2.6460 HW1           1 RES     
    7870 HW2         40.1580    10.7400     4.1430 HW2           1 RES     
    7871 OW           5.5160    10.7330    12.6300 OW            1 RES     
    7872 HW1          4.5640    10.8270    12.9200 HW1           1 RES     
    7873 HW2          5.8200     9.7920    12.7790 HW2           1 RES     
    7874 OW          22.7260    18.0200    17.2740 OW            1 RES     
    7875 HW1         22.7610    18.3970    16.3490 HW1           1 RES     
    7876 HW2         22.6240    17.0260    17.2250 HW2           1 RES     
    7877 OW          19.2510    20.5380    12.4090 OW            1 RES     
    7878 HW1         19.6670    19.8470    12.9990 HW1           1 RES     
    7879 HW2         19.9240    21.2480    12.2020 HW2           1 RES     
    7880 OW          17.2730     2.0940     6.2260 OW            1 RES     
    7881 HW1         17.9850     2.6330     5.7770 HW1           1 RES     
    7882 HW2         16.6850     1.6740     5.5350 HW2           1 RES     
    7883 OW           2.0730    21.6030    12.6500 OW            1 RES     
    7884 HW1          2.2550    22.3850    12.0540 HW1           1 RES     
    7885 HW2          2.1430    20.7570    12.1220 HW2           1 RES     
    7886 OW           7.6730    31.0030     1.7860 OW            1 RES     
    7887 HW1          6.7470    31.3720     1.8560 HW1           1 RES     
    7888 HW2          7.8120    30.3100     2.4940 HW2           1 RES     
    7889 OW          -1.6280    23.2750     9.3480 OW            1 RES     
    7890 HW1         -1.0200    23.4650     8.5780 HW1           1 RES     
    7891 HW2         -1.1140    23.3420    10.2040 HW2           1 RES     
    7892 OW          10.6200    30.5310     4.6760 OW            1 RES     
    7893 HW1         10.3810    29.6620     5.1080 HW1           1 RES     
    7894 HW2         11.5850    30.7340     4.8460 HW2           1 RES     
    7895 OW          26.7280     3.8420     5.6960 OW            1 RES     
    7896 HW1         25.8980     3.6730     5.1660 HW1           1 RES     
    7897 HW2         27.4100     4.2870     5.1150 HW2           1 RES     
    7898 OW          21.6890    28.6080     5.7510 OW            1 RES     
    7899 HW1         21.7940    27.6140     5.7510 HW1           1 RES     
    7900 HW2         22.5200    29.0310     5.3900 HW2           1 RES     
    7901 OW          13.8920    27.7620    16.1680 OW            1 RES     
    7902 HW1         14.6320    28.1980    16.6770 HW1           1 RES     
    7903 HW2         14.2200    27.5000    15.2600 HW2           1 RES     
    7904 OW           5.9060    33.0450     8.0280 OW            1 RES     
    7905 HW1          5.6440    32.1050     7.8140 HW1           1 RES     
    7906 HW2          5.8910    33.1800     9.0190 HW2           1 RES     
    7907 OW          30.3930     0.1920    12.8950 OW            1 RES     
    7908 HW1         31.0090     0.9350    12.6360 HW1           1 RES     
    7909 HW2         30.6780    -0.6520    12.4410 HW2           1 RES     
    7910 OW          19.4450     3.9440     8.8480 OW            1 RES     
    7911 HW1         19.8820     3.8090     9.7370 HW1           1 RES     
    7912 HW2         19.0450     3.0820     8.5390 HW2           1 RES     
    7913 OW          14.5530    24.1060    12.2710 OW            1 RES     
    7914 HW1         15.1030    23.7850    11.5010 HW1           1 RES     
    7915 HW2         15.0120    23.8750    13.1290 HW2           1 RES     
    7916 OW          36.4740    43.1010     3.1720 OW            1 RES     
    7917 HW1         37.3560    43.3110     2.7520 HW1           1 RES     
    7918 HW2         36.2620    42.1330     3.0350 HW2           1 RES     
    7919 OW          24.2060    21.2060     7.1420 OW            1 RES     
    7920 HW1         23.3770    20.6490     7.1060 HW1           1 RES     
    7921 HW2         24.0330    22.0260     7.6870 HW2           1 RES     
    7922 OW           4.4200     8.4840     6.0790 OW            1 RES     
    7923 HW1          4.2040     7.5100     6.1250 HW1           1 RES     
    7924 HW2          5.2990     8.6530     6.5260 HW2           1 RES     
    7925 OW           2.7650    25.2710     2.8740 OW            1 RES     
    7926 HW1          2.0420    25.8720     2.5330 HW1           1 RES     
    7927 HW2          3.6360    25.7630     2.8730 HW2           1 RES     
    7928 OW          -3.2570     1.1340    13.1870 OW            1 RES     
    7929 HW1         -3.8720     0.3570    13.3180 HW1           1 RES     
    7930 HW2         -3.7930     1.9750    13.1120 HW2           1 RES     
    7931 OW          24.4890    20.8870    10.6650 OW            1 RES     
    7932 HW1         24.2830    21.4380    11.4730 HW1           1 RES     
    7933 HW2         25.2730    20.2950    10.8550 HW2           1 RES     
    7934 OW          24.1660     7.6640     2.3220 OW            1 RES     
    7935 HW1         23.4560     8.3230     2.0780 HW1           1 RES     
    7936 HW2         24.6130     7.9530     3.1690 HW2           1 RES     
    7937 OW           9.6990    34.6230     1.8240 OW            1 RES     
    7938 HW1         10.6960    34.5550     1.8610 HW1           1 RES     
    7939 HW2          9.2970    33.7200     1.9750 HW2           1 RES     
    7940 OW          31.0320    39.1500     5.6570 OW            1 RES     
    7941 HW1         30.5180    39.8640     5.1820 HW1           1 RES     
    7942 HW2         31.9920    39.4210     5.7290 HW2           1 RES     
    7943 OW          31.4160    -2.6530     3.2340 OW            1 RES     
    7944 HW1         32.2810    -2.4730     2.7670 HW1           1 RES     
    7945 HW2         31.5680    -3.3010     3.9810 HW2           1 RES     
    7946 OW          33.6820    -3.0550     6.4220 OW            1 RES     
    7947 HW1         34.5780    -2.9240     5.9990 HW1           1 RES     
    7948 HW2         33.2920    -2.1650     6.6600 HW2           1 RES     
    7949 OW          28.7520    11.0690     8.7930 OW            1 RES     
    7950 HW1         28.7370    12.0510     8.6090 HW1           1 RES     
    7951 HW2         27.8280    10.7570     9.0130 HW2           1 RES     
    7952 OW          13.6180    10.5770     6.2060 OW            1 RES     
    7953 HW1         13.8810    11.5370     6.3000 HW1           1 RES     
    7954 HW2         12.8570    10.3770     6.8240 HW2           1 RES     
    7955 OW           1.2760    13.7100    17.2180 OW            1 RES     
    7956 HW1          1.1290    12.7220    17.2500 HW1           1 RES     
    7957 HW2          2.2570    13.9000    17.1650 HW2           1 RES     
    7958 OW          27.9790    -0.7810     9.1310 OW            1 RES     
    7959 HW1         28.0070    -1.4180     8.3610 HW1           1 RES     
    7960 HW2         28.8590    -0.7930     9.6060 HW2           1 RES     
    7961 OW          12.9410     7.7130     2.7390 OW            1 RES     
    7962 HW1         13.9290     7.8480     2.8070 HW1           1 RES     
    7963 HW2         12.6930     7.5350     1.7860 HW2           1 RES     
    7964 OW          37.9730    11.1360    14.8650 OW            1 RES     
    7965 HW1         38.8870    10.8180    15.1170 HW1           1 RES     
    7966 HW2         37.3260    10.3750    14.9270 HW2           1 RES     
    7967 OW          16.0860    11.5110     6.3150 OW            1 RES     
    7968 HW1         16.1590    11.2800     5.3450 HW1           1 RES     
    7969 HW2         16.9990    11.6750     6.6890 HW2           1 RES     
    7970 OW          44.7920    38.7210     8.7010 OW            1 RES     
    7971 HW1         44.9310    39.6770     8.4450 HW1           1 RES     
    7972 HW2         43.8230    38.4900     8.6160 HW2           1 RES     
    7973 OW           7.3310    35.2430    13.1600 OW            1 RES     
    7974 HW1          7.7650    34.9790    12.2990 HW1           1 RES     
    7975 HW2          7.6930    36.1260    13.4590 HW2           1 RES     
    7976 OW          21.8200    24.4160     2.5230 OW            1 RES     
    7977 HW1         21.3250    23.6630     2.9550 HW1           1 RES     
    7978 HW2         21.2980    25.2630     2.6290 HW2           1 RES     
    7979 OW          -5.3800     5.4130    12.2170 OW            1 RES     
    7980 HW1         -4.3960     5.5500    12.3250 HW1           1 RES     
    7981 HW2         -5.5700     4.4390    12.0930 HW2           1 RES     
    7982 OW          18.4030    -4.1190     4.4160 OW            1 RES     
    7983 HW1         18.1350    -3.1590     4.4730 HW1           1 RES     
    7984 HW2         19.2330    -4.2020     3.8630 HW2           1 RES     
    7985 OW          35.0370     4.2830    10.1760 OW            1 RES     
    7986 HW1         34.3650     3.5440    10.1420 HW1           1 RES     
    7987 HW2         35.9590     3.8950    10.1780 HW2           1 RES     
    7988 OW          16.2450    17.2520     3.2740 OW            1 RES     
    7989 HW1         17.1160    16.8280     3.0260 HW1           1 RES     
    7990 HW2         15.4940    16.6420     3.0210 HW2           1 RES     
    7991 OW          43.7070    11.7650     9.8600 OW            1 RES     
    7992 HW1         43.4600    10.8940     9.4370 HW1           1 RES     
    7993 HW2         43.0290    12.0040    10.5540 HW2           1 RES     
    7994 OW           2.7750    15.3350    13.2120 OW            1 RES     
    7995 HW1          1.8000    15.1280    13.2920 HW1           1 RES     
    7996 HW2          3.2970    14.4820    13.1930 HW2           1 RES     
    7997 OW           1.7310    22.8720     9.6000 OW            1 RES     
    7998 HW1          1.0640    23.0410    10.3250 HW1           1 RES     
    7999 HW2          2.6430    23.1270     9.9200 HW2           1 RES     
    8000 OW           2.7650    19.7280     7.9780 OW            1 RES     
    8001 HW1          2.2930    18.8540     8.0880 HW1           1 RES     
    8002 HW2          2.7940    19.9730     7.0080 HW2           1 RES     
    8003 OW          27.3450    24.4740    14.8270 OW            1 RES     
    8004 HW1         28.0830    24.6540    14.1780 HW1           1 RES     
    8005 HW2         26.4630    24.6050    14.3750 HW2           1 RES     
    8006 OW          31.4470    11.9880    15.9040 OW            1 RES     
    8007 HW1         31.0170    12.7840    16.3300 HW1           1 RES     
    8008 HW2         31.8160    12.2460    15.0100 HW2           1 RES     
    8009 OW          19.9800     8.9510     2.8460 OW            1 RES     
    8010 HW1         19.0180     9.2150     2.7710 HW1           1 RES     
    8011 HW2         20.0640     7.9610     2.7360 HW2           1 RES     
    8012 OW           6.3290     5.2330     6.5900 OW            1 RES     
    8013 HW1          5.8940     4.3330     6.5770 HW1           1 RES     
    8014 HW2          5.6300     5.9390     6.7080 HW2           1 RES     
    8015 OW          -1.9090    14.4210     6.5230 OW            1 RES     
    8016 HW1         -1.0400    13.9980     6.7760 HW1           1 RES     
    8017 HW2         -1.7450    15.3530     6.1990 HW2           1 RES     
    8018 OW          32.7030    37.1830     6.9180 OW            1 RES     
    8019 HW1         33.6730    37.4170     6.8680 HW1           1 RES     
    8020 HW2         32.2080    37.9110     7.3930 HW2           1 RES     
    8021 OW          43.4390    30.0860     7.8970 OW            1 RES     
    8022 HW1         42.8890    30.8900     8.1190 HW1           1 RES     
    8023 HW2         44.3830    30.3660     7.7210 HW2           1 RES     
    8024 OW           5.6330     2.1620     8.8980 OW            1 RES     
    8025 HW1          6.3170     2.8780     8.7570 HW1           1 RES     
    8026 HW2          6.0900     1.2750     8.9750 HW2           1 RES     
    8027 OW          20.4710     8.5740    15.2050 OW            1 RES     
    8028 HW1         19.9680     9.3740    15.5300 HW1           1 RES     
    8029 HW2         20.8180     8.0570    15.9880 HW2           1 RES     
    8030 OW          17.7580    30.7320    10.8640 OW            1 RES     
    8031 HW1         17.3260    29.8320    10.8150 HW1           1 RES     
    8032 HW2         17.0510    31.4380    10.9210 HW2           1 RES     
    8033 OW          37.3070    24.3090    11.1370 OW            1 RES     
    8034 HW1         37.4790    25.0140    11.8240 HW1           1 RES     
    8035 HW2         37.7280    23.4490    11.4270 HW2           1 RES     
    8036 OW          16.4910     6.5440    10.8720 OW            1 RES     
    8037 HW1         16.8040     5.6000    10.9650 HW1           1 RES     
    8038 HW2         17.2820     7.1500    10.7790 HW2           1 RES     
    8039 OW          34.8260    42.3130     4.7820 OW            1 RES     
    8040 HW1         33.9480    41.8370     4.8190 HW1           1 RES     
    8041 HW2         34.6690    43.3000     4.7610 HW2           1 RES     
    8042 OW          13.0950    26.9910     6.0810 OW            1 RES     
    8043 HW1         13.8920    27.3600     5.6050 HW1           1 RES     
    8044 HW2         13.2700    26.9800     7.0660 HW2           1 RES     
    8045 OW          18.1100    22.5970    16.6870 OW            1 RES     
    8046 HW1         18.7940    21.9040    16.4590 HW1           1 RES     
    8047 HW2         18.2620    23.4130    16.1290 HW2           1 RES     
    8048 OW          16.8670    41.5620    11.8770 OW            1 RES     
    8049 HW1         17.0200    40.5760    11.8280 HW1           1 RES     
    8050 HW2         17.7470    42.0360    11.9210 HW2           1 RES     
    8051 OW           5.4100    29.3550     5.3520 OW            1 RES     
    8052 HW1          5.6270    29.7680     4.4690 HW1           1 RES     
    8053 HW2          5.9480    29.7980     6.0700 HW2           1 RES     
    8054 OW          24.0790     2.4930    14.1420 OW            1 RES     
    8055 HW1         24.8400     3.1400    14.1290 HW1           1 RES     
    8056 HW2         23.2140     2.9940    14.1060 HW2           1 RES     
    8057 OW          18.2250    38.1840    16.8430 OW            1 RES     
    8058 HW1         18.3540    39.0770    17.2740 HW1           1 RES     
    8059 HW2         19.0350    37.6180    16.9980 HW2           1 RES     
    8060 OW          16.7680    32.5760    16.6600 OW            1 RES     
    8061 HW1         15.7970    32.5620    16.4240 HW1           1 RES     
    8062 HW2         16.9730    31.8130    17.2740 HW2           1 RES     
    8063 OW          36.1820    30.5660     2.7600 OW            1 RES     
    8064 HW1         35.2100    30.3430     2.8150 HW1           1 RES     
    8065 HW2         36.7200    29.7230     2.7820 HW2           1 RES     
    8066 OW          24.9020    35.4160    16.8680 OW            1 RES     
    8067 HW1         25.6640    36.0530    16.9790 HW1           1 RES     
    8068 HW2         25.2180    34.4840    17.0480 HW2           1 RES     
    8069 OW          23.1230    17.2350    14.5170 OW            1 RES     
    8070 HW1         23.8970    16.7220    14.1460 HW1           1 RES     
    8071 HW2         22.5490    16.6240    15.0640 HW2           1 RES     
    8072 OW          27.8560    11.9700     3.4960 OW            1 RES     
    8073 HW1         28.8440    11.8770     3.3710 HW1           1 RES     
    8074 HW2         27.4400    11.0620     3.5560 HW2           1 RES     
    8075 OW          42.9860    27.7270     3.6580 OW            1 RES     
    8076 HW1         43.6190    28.0320     2.9480 HW1           1 RES     
    8077 HW2         42.3510    27.0560     3.2750 HW2           1 RES     
    8078 OW          40.7560    36.0730    17.0410 OW            1 RES     
    8079 HW1         40.5140    36.8570    16.4700 HW1           1 RES     
    8080 HW2         41.7510    35.9800    17.0750 HW2           1 RES     
    8081 OW          22.9670    24.8960    11.3000 OW            1 RES     
    8082 HW1         22.5970    25.1030    10.3950 HW1           1 RES     
    8083 HW2         23.2210    23.9290    11.3430 HW2           1 RES     
    8084 OW           8.2970    31.0770    15.1620 OW            1 RES     
    8085 HW1          8.9120    31.8440    15.3420 HW1           1 RES     
    8086 HW2          8.8090    30.2200    15.2110 HW2           1 RES     
    8087 OW          28.1710     7.6750    16.7330 OW            1 RES     
    8088 HW1         29.1360     7.5890    16.9800 HW1           1 RES     
    8089 HW2         27.6990     6.8150    16.9280 HW2           1 RES     
    8090 OW          22.6100    22.0260    14.0140 OW            1 RES     
    8091 HW1         23.0250    21.3770    13.3770 HW1           1 RES     
    8092 HW2         21.7530    21.6490    14.3640 HW2           1 RES     
    8093 OW          27.5440     5.3430    10.7720 OW            1 RES     
    8094 HW1         28.3640     5.3470    10.2000 HW1           1 RES     
    8095 HW2         27.7290     5.8370    11.6220 HW2           1 RES     
    8096 OW          -5.9000     2.2730    11.6940 OW            1 RES     
    8097 HW1         -5.9830     1.7900    12.5650 HW1           1 RES     
    8098 HW2         -6.7730     2.7060    11.4680 HW2           1 RES     
    8099 OW          10.5100    40.2270     6.9490 OW            1 RES     
    8100 HW1         11.3090    39.6710     6.7240 HW1           1 RES     
    8101 HW2         10.7890    41.1800     7.0710 HW2           1 RES     
    8102 OW           4.8750    36.9890    12.2740 OW            1 RES     
    8103 HW1          4.7960    36.4850    13.1330 HW1           1 RES     
    8104 HW2          4.3410    37.8330    12.3320 HW2           1 RES     
    8105 OW          31.4250    23.6990     5.3460 OW            1 RES     
    8106 HW1         31.6330    23.4040     6.2780 HW1           1 RES     
    8107 HW2         30.5580    23.2950     5.0530 HW2           1 RES     
    8108 OW          45.0940    22.8940     2.3320 OW            1 RES     
    8109 HW1         44.5630    23.5580     1.8070 HW1           1 RES     
    8110 HW2         45.1090    22.0200     1.8470 HW2           1 RES     
    8111 OW          35.0680    14.0200    12.5240 OW            1 RES     
    8112 HW1         34.3200    14.6810    12.4840 HW1           1 RES     
    8113 HW2         35.9370    14.4890    12.3640 HW2           1 RES     
    8114 OW          -0.6790    34.4010    17.1030 OW            1 RES     
    8115 HW1         -1.6760    34.4120    17.0400 HW1           1 RES     
    8116 HW2         -0.3650    33.4670    17.2720 HW2           1 RES     
    8117 OW          40.3890    13.9460     8.5290 OW            1 RES     
    8118 HW1         40.8960    13.1200     8.2830 HW1           1 RES     
    8119 HW2         40.7630    14.3290     9.3740 HW2           1 RES     
    8120 OW          42.5300    -3.3360    15.3960 OW            1 RES     
    8121 HW1         41.6600    -3.2690    14.9080 HW1           1 RES     
    8122 HW2         42.6570    -4.2720    15.7230 HW2           1 RES     
    8123 OW          28.7840    30.5770     7.6410 OW            1 RES     
    8124 HW1         29.0840    31.3310     7.0580 HW1           1 RES     
    8125 HW2         29.3720    30.5240     8.4480 HW2           1 RES     
    8126 OW          34.5740    13.7910     3.1050 OW            1 RES     
    8127 HW1         35.0480    12.9140     3.0400 HW1           1 RES     
    8128 HW2         34.2780    14.0790     2.1940 HW2           1 RES     
    8129 OW          14.3260    39.0060     5.5870 OW            1 RES     
    8130 HW1         14.3900    39.6910     6.3120 HW1           1 RES     
    8131 HW2         15.2350    38.8390     5.2050 HW2           1 RES     
    8132 OW          23.5810    38.4350    16.7400 OW            1 RES     
    8133 HW1         24.4280    38.5860    17.2480 HW1           1 RES     
    8134 HW2         22.9710    37.8490    17.2740 HW2           1 RES     
    8135 OW          22.8430    14.3360    14.1470 OW            1 RES     
    8136 HW1         23.8070    14.5260    14.3330 HW1           1 RES     
    8137 HW2         22.4710    13.7570    14.8730 HW2           1 RES     
    8138 OW          32.1620    40.9680     8.2550 OW            1 RES     
    8139 HW1         33.1570    40.8770     8.2740 HW1           1 RES     
    8140 HW2         31.7450    40.0600     8.2030 HW2           1 RES     
    8141 OW          14.0190    13.1980     7.7630 OW            1 RES     
    8142 HW1         14.1060    14.1910     7.6880 HW1           1 RES     
    8143 HW2         14.9290    12.7880     7.8400 HW2           1 RES     
    8144 OW           6.1420    21.5580     3.0050 OW            1 RES     
    8145 HW1          5.5990    21.3430     2.1940 HW1           1 RES     
    8146 HW2          6.2130    22.5500     3.1070 HW2           1 RES     
    8147 OW          41.4960    13.8650    12.8080 OW            1 RES     
    8148 HW1         41.5700    12.8780    12.9520 HW1           1 RES     
    8149 HW2         41.8720    14.3470    13.6000 HW2           1 RES     
    8150 OW          11.6570     7.2240     4.4580 OW            1 RES     
    8151 HW1         10.6690     7.1880     4.3110 HW1           1 RES     
    8152 HW2         12.0220     6.2940     4.5020 HW2           1 RES     
    8153 OW          13.8960    43.3130    15.7240 OW            1 RES     
    8154 HW1         14.5730    42.6660    16.0720 HW1           1 RES     
    8155 HW2         12.9880    42.8940    15.7530 HW2           1 RES     
    8156 OW          25.0810    15.5520    15.8040 OW            1 RES     
    8157 HW1         24.3230    16.0080    16.2680 HW1           1 RES     
    8158 HW2         25.5160    14.9050    16.4300 HW2           1 RES     
    8159 OW          12.8670    16.5330     3.4250 OW            1 RES     
    8160 HW1         12.6310    15.6580     3.0040 HW1           1 RES     
    8161 HW2         12.3300    16.6570     4.2600 HW2           1 RES     
    8162 OW          30.4430    36.6900     8.2250 OW            1 RES     
    8163 HW1         29.5900    36.1730     8.2880 HW1           1 RES     
    8164 HW2         31.2190    36.0600     8.2460 HW2           1 RES     
    8165 OW          42.1600    36.2680     3.4810 OW            1 RES     
    8166 HW1         41.7460    35.4730     3.9230 HW1           1 RES     
    8167 HW2         42.0020    36.2230     2.4950 HW2           1 RES     
    8168 OW          38.8990     8.3330    14.3740 OW            1 RES     
    8169 HW1         38.5590     8.5770    15.2810 HW1           1 RES     
    8170 HW2         38.9600     7.3380    14.2960 HW2           1 RES     
    8171 OW          -0.1320    -2.8910     9.8840 OW            1 RES     
    8172 HW1          0.6260    -2.9390     9.2330 HW1           1 RES     
    8173 HW2          0.0750    -2.2090    10.5860 HW2           1 RES     
    8174 OW           9.1600    35.7300     9.7670 OW            1 RES     
    8175 HW1          8.6800    35.0330    10.2990 HW1           1 RES     
    8176 HW2         10.1050    35.4400     9.6140 HW2           1 RES     
    8177 OW          12.7380    23.1930     2.5930 OW            1 RES     
    8178 HW1         13.1580    22.2910     2.6850 HW1           1 RES     
    8179 HW2         11.7790    23.0890     2.3290 HW2           1 RES     
    8180 OW          22.7760     1.9350     7.2560 OW            1 RES     
    8181 HW1         22.8190     1.5240     8.1660 HW1           1 RES     
    8182 HW2         23.4850     1.5360     6.6750 HW2           1 RES     
    8183 OW          19.9020     7.1010     6.3030 OW            1 RES     
    8184 HW1         20.3980     6.3010     6.6390 HW1           1 RES     
    8185 HW2         18.9850     7.1180     6.7020 HW2           1 RES     
    8186 OW          10.9850     2.3000    14.2970 OW            1 RES     
    8187 HW1         10.3570     1.5680    14.5590 HW1           1 RES     
    8188 HW2         10.4760     3.0260    13.8340 HW2           1 RES     
    8189 OW          30.2180    26.5010     4.8250 OW            1 RES     
    8190 HW1         30.3820    26.5070     5.8110 HW1           1 RES     
    8191 HW2         30.1850    25.5570     4.4970 HW2           1 RES     
    8192 OW          40.3920    23.6760     3.3750 OW            1 RES     
    8193 HW1         41.0500    24.4110     3.2150 HW1           1 RES     
    8194 HW2         39.5100    24.0690     3.6350 HW2           1 RES     
    8195 OW          27.4670    34.9020    12.6560 OW            1 RES     
    8196 HW1         27.4390    35.5830    13.3870 HW1           1 RES     
    8197 HW2         26.7070    34.2620    12.7670 HW2           1 RES     
    8198 OW           6.0890     2.6970    11.9370 OW            1 RES     
    8199 HW1          5.6040     2.3910    12.7560 HW1           1 RES     
    8200 HW2          5.6650     2.2920    11.1270 HW2           1 RES     
    8201 OW           3.6980    24.8990    17.1760 OW            1 RES     
    8202 HW1          4.6270    25.2650    17.1550 HW1           1 RES     
    8203 HW2          3.7340    23.9010    17.2420 HW2           1 RES     
    8204 OW          16.5600    33.9900     7.6500 OW            1 RES     
    8205 HW1         15.6200    33.6680     7.7480 HW1           1 RES     
    8206 HW2         16.5700    34.9900     7.6330 HW2           1 RES     
    8207 OW          19.7570    42.4680    10.0940 OW            1 RES     
    8208 HW1         20.3540    41.7940     9.6600 HW1           1 RES     
    8209 HW2         18.8030    42.1820     9.9960 HW2           1 RES     
    8210 OW           9.8430     9.1850     6.6690 OW            1 RES     
    8211 HW1         10.7510     9.5770     6.5300 HW1           1 RES     
    8212 HW2          9.3580     9.7070     7.3710 HW2           1 RES     
    8213 OW           9.8980    38.0670     5.3240 OW            1 RES     
    8214 HW1          9.8750    37.4720     6.1270 HW1           1 RES     
    8215 HW2          9.1990    37.7730     4.6710 HW2           1 RES     
    8216 OW          35.4020     5.5070     2.5880 OW            1 RES     
    8217 HW1         35.8130     4.6040     2.4670 HW1           1 RES     
    8218 HW2         34.4100     5.4140     2.6740 HW2           1 RES     
    8219 OW          44.6150    29.4840    15.1990 OW            1 RES     
    8220 HW1         45.0040    29.9550    14.4080 HW1           1 RES     
    8221 HW2         45.1000    28.6220    15.3470 HW2           1 RES     
    8222 OW          27.8180    11.5060     6.0340 OW            1 RES     
    8223 HW1         28.6020    11.9110     5.5650 HW1           1 RES     
    8224 HW2         27.0980    12.1930     6.1360 HW2           1 RES     
    8225 OW          26.2190    42.2750    11.3820 OW            1 RES     
    8226 HW1         25.2200    42.3000    11.4030 HW1           1 RES     
    8227 HW2         26.5810    43.1710    11.6410 HW2           1 RES     
    8228 OW          34.8650    28.2060     2.4160 OW            1 RES     
    8229 HW1         34.0820    27.7350     2.0110 HW1           1 RES     
    8230 HW2         35.6890    27.9960     1.8900 HW2           1 RES     
    8231 OW          36.2760     5.9410    10.9900 OW            1 RES     
    8232 HW1         35.7740     5.8880    11.8530 HW1           1 RES     
    8233 HW2         36.0430     6.7920    10.5200 HW2           1 RES     
    8234 OW          23.0160     6.9520     7.0470 OW            1 RES     
    8235 HW1         22.6430     6.4190     6.2890 HW1           1 RES     
    8236 HW2         23.1990     6.3470     7.8220 HW2           1 RES     
    8237 OW          18.9590    28.5100     9.2480 OW            1 RES     
    8238 HW1         18.1490    28.9530     8.8670 HW1           1 RES     
    8239 HW2         18.8050    28.3050    10.2150 HW2           1 RES     
    8240 OW           9.2780    -3.5080    10.5040 OW            1 RES     
    8241 HW1          9.3110    -2.5120    10.4300 HW1           1 RES     
    8242 HW2          8.3270    -3.8150    10.4570 HW2           1 RES     
    8243 OW           6.7150    -0.3770    14.5900 OW            1 RES     
    8244 HW1          6.5090    -0.5600    15.5510 HW1           1 RES     
    8245 HW2          6.8540     0.6050    14.4590 HW2           1 RES     
    8246 OW           8.9000     1.7540     8.4830 OW            1 RES     
    8247 HW1          8.3990     1.5860     7.6350 HW1           1 RES     
    8248 HW2          8.4790     2.5170     8.9740 HW2           1 RES     
    8249 OW           0.5010    10.2820    12.7640 OW            1 RES     
    8250 HW1         -0.0500    10.5790    11.9850 HW1           1 RES     
    8251 HW2          1.4670    10.4600    12.5770 HW2           1 RES     
    8252 OW          41.4980     6.0000     6.8020 OW            1 RES     
    8253 HW1         40.9070     5.2240     6.5820 HW1           1 RES     
    8254 HW2         40.9500     6.8350     6.8480 HW2           1 RES     
    8255 OW           0.3870    25.3580     9.7170 OW            1 RES     
    8256 HW1         -0.6080    25.4060     9.6270 HW1           1 RES     
    8257 HW2          0.7650    24.8270     8.9580 HW2           1 RES     
    8258 OW          29.1530     2.8600    13.9700 OW            1 RES     
    8259 HW1         28.2700     2.4780    13.7000 HW1           1 RES     
    8260 HW2         29.0370     3.8200    14.2280 HW2           1 RES     
    8261 OW          17.3700    21.3430    13.6020 OW            1 RES     
    8262 HW1         17.2050    21.4510    12.6220 HW1           1 RES     
    8263 HW2         17.1440    22.1960    14.0740 HW2           1 RES     
    8264 OW           7.2610    18.4140    10.0010 OW            1 RES     
    8265 HW1          7.2170    19.2460    10.5540 HW1           1 RES     
    8266 HW2          7.2100    18.6540     9.0320 HW2           1 RES     
    8267 OW          16.9530    11.8300     2.1260 OW            1 RES     
    8268 HW1         17.5240    12.2530     2.8280 HW1           1 RES     
    8269 HW2         16.6200    10.9460     2.4540 HW2           1 RES     
    8270 OW          24.0620     5.0180    13.0250 OW            1 RES     
    8271 HW1         23.7170     4.3070    12.4140 HW1           1 RES     
    8272 HW2         23.4140     5.1590    13.7740 HW2           1 RES     
    8273 OW          10.4830     0.8890     6.5190 OW            1 RES     
    8274 HW1         10.3890     0.5130     7.4400 HW1           1 RES     
    8275 HW2         11.4440     0.8590     6.2430 HW2           1 RES     
    8276 OW          22.2030    34.9950    11.4720 OW            1 RES     
    8277 HW1         22.3180    35.0500    10.4810 HW1           1 RES     
    8278 HW2         21.2360    35.1060    11.7020 HW2           1 RES     
    8279 OW          32.4950    40.1270    16.4490 OW            1 RES     
    8280 HW1         32.6750    39.2490    16.0060 HW1           1 RES     
    8281 HW2         32.8370    40.8690    15.8720 HW2           1 RES     
    8282 OW          -2.3830    28.5880     6.5280 OW            1 RES     
    8283 HW1         -1.7930    28.6200     5.7220 HW1           1 RES     
    8284 HW2         -2.0860    27.8470     7.1310 HW2           1 RES     
    8285 OW          17.9560    10.3300    15.3060 OW            1 RES     
    8286 HW1         17.7680     9.3720    15.5240 HW1           1 RES     
    8287 HW2         17.1160    10.8650    15.4020 HW2           1 RES     
    8288 OW          19.6980     2.7110     2.6440 OW            1 RES     
    8289 HW1         18.7530     2.7800     2.9640 HW1           1 RES     
    8290 HW2         19.9430     3.5410     2.1440 HW2           1 RES     
    8291 OW          37.5170    12.4140    11.7440 OW            1 RES     
    8292 HW1         37.5050    12.7200    12.6950 HW1           1 RES     
    8293 HW2         36.6850    12.7240    11.2830 HW2           1 RES     
    8294 OW          17.5910    34.4570    11.0830 OW            1 RES     
    8295 HW1         17.4700    33.5350    11.4490 HW1           1 RES     
    8296 HW2         18.5670    34.6570    11.0000 HW2           1 RES     
    8297 OW          36.5810    30.9870     9.1040 OW            1 RES     
    8298 HW1         35.8290    31.6420     9.1590 HW1           1 RES     
    8299 HW2         37.4520    31.4800     9.0800 HW2           1 RES     
    8300 OW          24.1920    18.9410     9.4120 OW            1 RES     
    8301 HW1         23.5760    18.5950     8.7060 HW1           1 RES     
    8302 HW2         24.9850    18.3350     9.4900 HW2           1 RES     
    8303 OW          11.1090    11.9270     7.6500 OW            1 RES     
    8304 HW1         10.3630    12.2600     8.2260 HW1           1 RES     
    8305 HW2         11.1200    12.4370     6.7900 HW2           1 RES     
    8306 OW          17.4680    16.3040    16.7720 OW            1 RES     
    8307 HW1         16.6560    16.0070    17.2730 HW1           1 RES     
    8308 HW2         17.9000    15.5130    16.3370 HW2           1 RES     
    8309 OW           1.0030     5.1330     8.2300 OW            1 RES     
    8310 HW1          1.2580     5.9630     7.7340 HW1           1 RES     
    8311 HW2          0.5570     5.3820     9.0900 HW2           1 RES     
    8312 OW          29.8100    -2.8510    16.7190 OW            1 RES     
    8313 HW1         30.3390    -2.9140    15.8730 HW1           1 RES     
    8314 HW2         30.1570    -2.0940    17.2740 HW2           1 RES     
    8315 OW          30.2000     4.9190     6.7310 OW            1 RES     
    8316 HW1         30.4390     4.0790     6.2450 HW1           1 RES     
    8317 HW2         31.0350     5.4090     6.9810 HW2           1 RES     
    8318 OW          44.9710    32.0920    13.8850 OW            1 RES     
    8319 HW1         44.7840    33.0100    13.5370 HW1           1 RES     
    8320 HW2         45.1070    32.1310    14.8750 HW2           1 RES     
    8321 OW          21.1150    11.0040     5.0700 OW            1 RES     
    8322 HW1         20.2670    11.3380     5.4800 HW1           1 RES     
    8323 HW2         20.9780    10.0720     4.7330 HW2           1 RES     
    8324 OW          20.7900     3.0380     6.1550 OW            1 RES     
    8325 HW1         19.9600     3.5750     6.0080 HW1           1 RES     
    8326 HW2         21.5110     3.3640     5.5430 HW2           1 RES     
    8327 OW          20.6340    41.2100     3.7770 OW            1 RES     
    8328 HW1         20.7690    40.2350     3.9520 HW1           1 RES     
    8329 HW2         21.3580    41.5450     3.1750 HW2           1 RES     
    8330 OW          19.6690    37.6000    13.7430 OW            1 RES     
    8331 HW1         19.5380    37.2220    14.6590 HW1           1 RES     
    8332 HW2         20.2630    38.4030    13.7940 HW2           1 RES     
    8333 OW          20.3430    15.7690     8.6560 OW            1 RES     
    8334 HW1         19.4840    16.1670     8.3370 HW1           1 RES     
    8335 HW2         20.6270    16.2200     9.5020 HW2           1 RES     
    8336 OW           3.0900     3.9820     4.3470 OW            1 RES     
    8337 HW1          3.8490     3.6980     3.7620 HW1           1 RES     
    8338 HW2          2.3710     4.3910     3.7850 HW2           1 RES     
    8339 OW           6.0230    28.2190    12.5550 OW            1 RES     
    8340 HW1          5.9310    27.3000    12.1740 HW1           1 RES     
    8341 HW2          5.3360    28.8200    12.1460 HW2           1 RES     
    8342 OW           2.1780    39.8600     6.8580 OW            1 RES     
    8343 HW1          2.9280    39.3530     6.4350 HW1           1 RES     
    8344 HW2          1.3700    39.2720     6.9180 HW2           1 RES     
    8345 OW          25.0540    40.3440    12.4390 OW            1 RES     
    8346 HW1         25.7180    40.8550    12.9850 HW1           1 RES     
    8347 HW2         24.7320    39.5530    12.9590 HW2           1 RES     
    8348 OW          44.5310    10.3900    14.4560 OW            1 RES     
    8349 HW1         44.3080     9.6640    13.8060 HW1           1 RES     
    8350 HW2         43.6990    10.8890    14.6980 HW2           1 RES     
    8351 OW          11.7860     6.2400     6.8800 OW            1 RES     
    8352 HW1         12.1930     5.3300     6.9530 HW1           1 RES     
    8353 HW2         10.8310     6.2040     7.1740 HW2           1 RES     
    8354 OW          41.4940    28.0290     8.5130 OW            1 RES     
    8355 HW1         41.4860    29.0110     8.3270 HW1           1 RES     
    8356 HW2         41.2470    27.8680     9.4690 HW2           1 RES     
    8357 OW          19.3130     6.7100    13.8190 OW            1 RES     
    8358 HW1         20.3000     6.8660    13.8280 HW1           1 RES     
    8359 HW2         19.1270     5.7430    13.9950 HW2           1 RES     
    8360 OW          27.0280    25.6270     2.7660 OW            1 RES     
    8361 HW1         26.2530    25.7260     3.3890 HW1           1 RES     
    8362 HW2         27.2300    26.5090     2.3410 HW2           1 RES     
    8363 OW          11.1980    10.4950     1.7860 OW            1 RES     
    8364 HW1         10.4760     9.8050     1.7940 HW1           1 RES     
    8365 HW2         11.0240    11.1690     2.5040 HW2           1 RES     
    8366 OW          -1.5930    18.5470    12.3100 OW            1 RES     
    8367 HW1         -0.9660    17.7690    12.3150 HW1           1 RES     
    8368 HW2         -1.0680    19.3990    12.3090 HW2           1 RES     
    8369 OW          -0.3050     0.8320     5.1250 OW            1 RES     
    8370 HW1         -0.4210     1.7030     5.6000 HW1           1 RES     
    8371 HW2         -1.1160     0.6420     4.5730 HW2           1 RES     
    8372 OW           1.9330     4.4570    12.2810 OW            1 RES     
    8373 HW1          2.6710     4.1200    11.6970 HW1           1 RES     
    8374 HW2          1.0740     4.0160    12.0210 HW2           1 RES     
    8375 OW           0.0810     7.9520    10.9150 OW            1 RES     
    8376 HW1          0.4380     7.4560    11.7050 HW1           1 RES     
    8377 HW2          0.2620     7.4280    10.0820 HW2           1 RES     
    8378 OW          21.4400     9.1520     7.8920 OW            1 RES     
    8379 HW1         21.7430     8.2900     8.2980 HW1           1 RES     
    8380 HW2         20.8620     9.6430     8.5440 HW2           1 RES     
    8381 OW           9.3720    -0.2390    10.6310 OW            1 RES     
    8382 HW1          9.9980    -0.1210     9.8610 HW1           1 RES     
    8383 HW2          8.4500    -0.4180    10.2880 HW2           1 RES     
    8384 OW          13.6530    31.9160    10.0750 OW            1 RES     
    8385 HW1         13.2610    31.0470     9.7780 HW1           1 RES     
    8386 HW2         13.0110    32.6570     9.8780 HW2           1 RES     
    8387 OW          42.6800    -4.0020     4.3320 OW            1 RES     
    8388 HW1         42.4390    -3.9820     3.3620 HW1           1 RES     
    8389 HW2         42.5050    -3.1050     4.7380 HW2           1 RES     
    8390 OW          22.2570    -4.3140     9.3960 OW            1 RES     
    8391 HW1         22.5490    -3.3820     9.1830 HW1           1 RES     
    8392 HW2         21.7410    -4.3140    10.2530 HW2           1 RES     
    8393 OW          17.5690    -1.0520    14.4710 OW            1 RES     
    8394 HW1         17.4000    -0.4340    15.2380 HW1           1 RES     
    8395 HW2         18.5240    -1.3490    14.4860 HW2           1 RES     
    8396 OW          35.9870    42.4890    10.8390 OW            1 RES     
    8397 HW1         35.4280    43.3140    10.7660 HW1           1 RES     
    8398 HW2         36.9510    42.7440    10.9100 HW2           1 RES     
    8399 OW          -1.4410    14.5700    15.1630 OW            1 RES     
    8400 HW1         -1.9090    15.3010    14.6670 HW1           1 RES     
    8401 HW2         -0.4610    14.7690    15.2050 HW2           1 RES     
    8402 OW          19.6410    39.3830    10.5030 OW            1 RES     
    8403 HW1         19.3800    40.2620    10.9020 HW1           1 RES     
    8404 HW2         19.3070    38.6400    11.0830 HW2           1 RES     
    8405 OW          13.4620     2.7930     4.1250 OW            1 RES     
    8406 HW1         14.2570     2.2000     4.2510 HW1           1 RES     
    8407 HW2         13.7680     3.7190     3.9020 HW2           1 RES     
    8408 OW          42.2510    15.7850    10.6280 OW            1 RES     
    8409 HW1         42.5790    16.7220    10.5120 HW1           1 RES     
    8410 HW2         42.2900    15.5350    11.5960 HW2           1 RES     
    8411 OW          19.4830     4.5490     4.0520 OW            1 RES     
    8412 HW1         19.1050     5.1680     3.3650 HW1           1 RES     
    8413 HW2         20.4420     4.7800     4.2180 HW2           1 RES     
    8414 OW          34.0840    37.2380    14.4920 OW            1 RES     
    8415 HW1         33.4800    37.3340    15.2820 HW1           1 RES     
    8416 HW2         34.9940    36.9570    14.7990 HW2           1 RES     
    8417 OW          -6.2140    30.9470    14.8630 OW            1 RES     
    8418 HW1         -6.7730    31.6740    14.4650 HW1           1 RES     
    8419 HW2         -6.7730    30.1260    14.9860 HW2           1 RES     
    8420 OW          34.3820    -4.0210    13.5090 OW            1 RES     
    8421 HW1         34.3170    -3.3530    14.2500 HW1           1 RES     
    8422 HW2         33.7610    -3.7610    12.7700 HW2           1 RES     
    8423 OW          -1.0980    21.7310    13.5190 OW            1 RES     
    8424 HW1         -1.8600    21.0870    13.5800 HW1           1 RES     
    8425 HW2         -0.2810    21.2510    13.1980 HW2           1 RES     
    8426 OW          31.0230    31.9100    11.8920 OW            1 RES     
    8427 HW1         30.9400    32.1930    10.9370 HW1           1 RES     
    8428 HW2         31.3190    32.6890    12.4460 HW2           1 RES     
    8429 OW           2.6870    14.7740    10.7670 OW            1 RES     
    8430 HW1          3.6190    14.4320    10.6500 HW1           1 RES     
    8431 HW2          2.1550    14.1180    11.3020 HW2           1 RES     
    8432 OW          31.7340    35.9000    12.9360 OW            1 RES     
    8433 HW1         32.5690    36.4160    13.1230 HW1           1 RES     
    8434 HW2         30.9550    36.5270    12.8990 HW2           1 RES     
    8435 OW          27.7820    24.8400     6.2980 OW            1 RES     
    8436 HW1         27.3390    23.9710     6.5130 HW1           1 RES     
    8437 HW2         28.7750    24.7210     6.3120 HW2           1 RES     
    8438 OW          13.5840    38.1650    15.7850 OW            1 RES     
    8439 HW1         14.1360    38.7930    15.2370 HW1           1 RES     
    8440 HW2         13.8620    37.2230    15.5940 HW2           1 RES     
    8441 OW           7.1330    32.6630    13.2000 OW            1 RES     
    8442 HW1          7.9580    33.1440    13.4970 HW1           1 RES     
    8443 HW2          6.3460    33.2760    13.2720 HW2           1 RES     
    8444 OW          14.7580    -1.1040     7.8890 OW            1 RES     
    8445 HW1         14.7890    -1.0890     8.8880 HW1           1 RES     
    8446 HW2         14.0010    -1.6830     7.5870 HW2           1 RES     
    8447 OW          42.6790    19.5720    16.6020 OW            1 RES     
    8448 HW1         42.0580    19.9740    17.2740 HW1           1 RES     
    8449 HW2         42.4300    19.8880    15.6860 HW2           1 RES     
    8450 OW          10.7830    27.4560     1.8230 OW            1 RES     
    8451 HW1         10.1060    28.1910     1.7860 HW1           1 RES     
    8452 HW2         11.7020    27.8490     1.8440 HW2           1 RES     
    8453 OW          44.9730     1.3290    10.9180 OW            1 RES     
    8454 HW1         43.9940     1.5330    10.9250 HW1           1 RES     
    8455 HW2         45.1080     0.3380    10.9300 HW2           1 RES     
    8456 OW          27.3960    20.8880    11.9340 OW            1 RES     
    8457 HW1         27.6490    20.1050    11.3680 HW1           1 RES     
    8458 HW2         28.2110    21.4330    12.1340 HW2           1 RES     
    8459 OW          19.5930    -1.9900    16.5330 OW            1 RES     
    8460 HW1         19.4580    -1.0030    16.4500 HW1           1 RES     
    8461 HW2         18.7090    -2.4540    16.4680 HW2           1 RES     
    8462 OW          33.5580    28.5530    10.9220 OW            1 RES     
    8463 HW1         32.9860    27.7930    10.6150 HW1           1 RES     
    8464 HW2         33.3310    28.7800    11.8690 HW2           1 RES     
    8465 OW          11.8370    39.3290     1.7860 OW            1 RES     
    8466 HW1         12.4120    38.5150     1.8520 HW1           1 RES     
    8467 HW2         12.4100    40.1480     1.8230 HW2           1 RES     
    8468 OW          21.4790    37.5960    10.4920 OW            1 RES     
    8469 HW1         21.4880    38.3540    11.1420 HW1           1 RES     
    8470 HW2         20.7090    36.9900    10.6960 HW2           1 RES     
    8471 OW          -0.1370    20.9500     7.4140 OW            1 RES     
    8472 HW1          0.7790    20.6060     7.6210 HW1           1 RES     
    8473 HW2         -0.0650    21.7880     6.8730 HW2           1 RES     
    8474 OW          37.0560     8.9620    16.8410 OW            1 RES     
    8475 HW1         36.8320     7.9900    16.7820 HW1           1 RES     
    8476 HW2         36.2120     9.4990    16.8590 HW2           1 RES     
    8477 OW          18.6900    11.7620    13.1910 OW            1 RES     
    8478 HW1         18.1290    12.5840    13.0950 HW1           1 RES     
    8479 HW2         19.2020    11.8060    14.0490 HW2           1 RES     
    8480 OW          23.7690    43.3130    13.1550 OW            1 RES     
    8481 HW1         24.2570    42.4680    13.3740 HW1           1 RES     
    8482 HW2         23.4180    43.2630    12.2200 HW2           1 RES     
    8483 OW          36.6200     7.1780     5.8470 OW            1 RES     
    8484 HW1         36.4330     7.4870     6.7790 HW1           1 RES     
    8485 HW2         36.0030     7.6420     5.2110 HW2           1 RES     
    8486 OW          34.4730    24.1170     7.7050 OW            1 RES     
    8487 HW1         34.5670    23.1950     8.0790 HW1           1 RES     
    8488 HW2         33.5040    24.3590     7.6520 HW2           1 RES     
    8489 OW           2.2380    10.3740     8.6000 OW            1 RES     
    8490 HW1          1.4170    10.8700     8.3180 HW1           1 RES     
    8491 HW2          2.4180     9.6330     7.9520 HW2           1 RES     
    8492 OW          41.4550    29.1540    14.3620 OW            1 RES     
    8493 HW1         41.2600    29.9640    14.9130 HW1           1 RES     
    8494 HW2         42.2200    28.6510    14.7650 HW2           1 RES     
    8495 OW          31.2170    42.9500     4.4660 OW            1 RES     
    8496 HW1         32.1330    43.3140     4.6300 HW1           1 RES     
    8497 HW2         30.5850    43.3140     5.1510 HW2           1 RES     
    8498 OW          39.3350     2.3260     9.6090 OW            1 RES     
    8499 HW1         40.2930     2.0400     9.6120 HW1           1 RES     
    8500 HW2         38.7450     1.5190     9.5950 HW2           1 RES     
    8501 OW          44.5580    16.4170     9.5140 OW            1 RES     
    8502 HW1         45.1010    15.5800     9.4600 HW1           1 RES     
    8503 HW2         45.1060    17.1920     9.1970 HW2           1 RES     
    8504 OW          16.3220     4.5560     4.4300 OW            1 RES     
    8505 HW1         17.3170     4.4630     4.4360 HW1           1 RES     
    8506 HW2         15.9020     3.6480     4.4390 HW2           1 RES     
    8507 OW          12.9170    22.9860     7.0340 OW            1 RES     
    8508 HW1         12.2720    22.5700     6.3940 HW1           1 RES     
    8509 HW2         12.4860    23.7720     7.4780 HW2           1 RES     
    8510 OW          10.3980    25.2050     4.0400 OW            1 RES     
    8511 HW1         10.4170    24.3260     3.5640 HW1           1 RES     
    8512 HW2         10.6060    25.0650     5.0080 HW2           1 RES     
    8513 OW          31.0150    38.2130   -66.4850 OW            1 RES     
    8514 HW1         30.1240    37.7740   -66.5960 HW1           1 RES     
    8515 HW2         30.9010    39.2070   -66.4970 HW2           1 RES     
    8516 OW          14.6060    18.8690   -60.4430 OW            1 RES     
    8517 HW1         14.2220    17.9570   -60.3070 HW1           1 RES     
    8518 HW2         13.9420    19.4440   -60.9210 HW2           1 RES     
    8519 OW          44.3790     6.1910   -71.9810 OW            1 RES     
    8520 HW1         44.5990     6.1560   -71.0070 HW1           1 RES     
    8521 HW2         44.5360     5.2930   -72.3920 HW2           1 RES     
    8522 OW           3.7090    -3.2660   -69.1310 OW            1 RES     
    8523 HW1          3.8630    -3.6810   -68.2350 HW1           1 RES     
    8524 HW2          3.7760    -2.2710   -69.0540 HW2           1 RES     
    8525 OW           2.7370    13.9090   -66.7410 OW            1 RES     
    8526 HW1          2.5650    13.8080   -65.7620 HW1           1 RES     
    8527 HW2          3.7190    14.0140   -66.8980 HW2           1 RES     
    8528 OW          -4.7010     2.1850   -62.4150 OW            1 RES     
    8529 HW1         -5.3270     1.7530   -61.7660 HW1           1 RES     
    8530 HW2         -5.0290     3.1040   -62.6350 HW2           1 RES     
    8531 OW           0.1430    43.2390   -67.1530 OW            1 RES     
    8532 HW1          0.4050    42.2750   -67.1570 HW1           1 RES     
    8533 HW2         -0.8540    43.3140   -67.1820 HW2           1 RES     
    8534 OW          39.8590    17.7000   -62.9970 OW            1 RES     
    8535 HW1         40.3740    18.2670   -63.6380 HW1           1 RES     
    8536 HW2         38.8970    17.9740   -63.0070 HW2           1 RES     
    8537 OW          17.6730    26.3700   -73.6880 OW            1 RES     
    8538 HW1         18.4760    25.8700   -74.0110 HW1           1 RES     
    8539 HW2         17.8930    26.8400   -72.8330 HW2           1 RES     
    8540 OW           0.8150    41.4380   -63.4590 OW            1 RES     
    8541 HW1          0.8410    42.4370   -63.4550 HW1           1 RES     
    8542 HW2          1.7490    41.0800   -63.4410 HW2           1 RES     
    8543 OW           3.2810     1.4820   -67.6310 OW            1 RES     
    8544 HW1          3.1120     2.4650   -67.5600 HW1           1 RES     
    8545 HW2          4.2210     1.3260   -67.9330 HW2           1 RES     
    8546 OW          -3.2940    41.0630   -67.5570 OW            1 RES     
    8547 HW1         -3.5450    40.0970   -67.5160 HW1           1 RES     
    8548 HW2         -3.7300    41.5540   -66.8020 HW2           1 RES     
    8549 OW          16.0240    31.0990   -60.7120 OW            1 RES     
    8550 HW1         15.9580    31.5620   -59.8290 HW1           1 RES     
    8551 HW2         15.6080    31.6700   -61.4200 HW2           1 RES     
    8552 OW          -2.4550    30.1140   -68.8800 OW            1 RES     
    8553 HW1         -2.1520    30.7820   -69.5590 HW1           1 RES     
    8554 HW2         -1.7050    29.4870   -68.6700 HW2           1 RES     
    8555 OW          33.9720    13.7130   -67.8030 OW            1 RES     
    8556 HW1         33.2760    13.4610   -67.1310 HW1           1 RES     
    8557 HW2         34.3520    14.6080   -67.5690 HW2           1 RES     
    8558 OW          10.3170    -1.5040   -59.9640 OW            1 RES     
    8559 HW1         10.8720    -0.7400   -60.2890 HW1           1 RES     
    8560 HW2         10.3420    -2.2450   -60.6360 HW2           1 RES     
    8561 OW          13.2110    22.5040   -66.3110 OW            1 RES     
    8562 HW1         13.8180    21.7090   -66.3260 HW1           1 RES     
    8563 HW2         13.6560    23.2730   -66.7690 HW2           1 RES     
    8564 OW          40.9220    22.1170   -63.5890 OW            1 RES     
    8565 HW1         40.0400    21.8110   -63.9450 HW1           1 RES     
    8566 HW2         41.6130    21.4140   -63.7600 HW2           1 RES     
    8567 OW          34.5780    17.4300   -73.8890 OW            1 RES     
    8568 HW1         35.5760    17.4650   -73.8610 HW1           1 RES     
    8569 HW2         34.2160    18.3500   -74.0380 HW2           1 RES     
    8570 OW          -1.4940     1.9640   -66.4410 OW            1 RES     
    8571 HW1         -0.9100     1.3650   -65.8920 HW1           1 RES     
    8572 HW2         -0.9230     2.5960   -66.9660 HW2           1 RES     
    8573 OW           7.9680    20.4930   -60.7700 OW            1 RES     
    8574 HW1          7.8080    21.3570   -61.2450 HW1           1 RES     
    8575 HW2          8.4100    20.6710   -59.8910 HW2           1 RES     
    8576 OW          20.6230     1.9420   -73.3530 OW            1 RES     
    8577 HW1         20.4200     1.0470   -73.7470 HW1           1 RES     
    8578 HW2         19.7700     2.4430   -73.2050 HW2           1 RES     
    8579 OW          19.9340    43.0890   -74.0130 OW            1 RES     
    8580 HW1         19.3750    42.2610   -74.0380 HW1           1 RES     
    8581 HW2         20.7750    42.9090   -73.5040 HW2           1 RES     
    8582 OW          -0.6600    33.1640   -70.4330 OW            1 RES     
    8583 HW1         -0.6510    33.0310   -69.4420 HW1           1 RES     
    8584 HW2         -1.6060    33.2310   -70.7520 HW2           1 RES     
    8585 OW          37.2510    -3.4140   -59.1930 OW            1 RES     
    8586 HW1         37.7280    -4.0130   -58.5510 HW1           1 RES     
    8587 HW2         36.5020    -3.9160   -59.6250 HW2           1 RES     
    8588 OW           2.4790    13.1930   -63.2960 OW            1 RES     
    8589 HW1          2.4660    14.1480   -63.5910 HW1           1 RES     
    8590 HW2          2.7420    13.1450   -62.3320 HW2           1 RES     
    8591 OW          16.6220    34.6290   -62.7470 OW            1 RES     
    8592 HW1         16.4620    33.7880   -63.2620 HW1           1 RES     
    8593 HW2         16.2210    35.4030   -63.2380 HW2           1 RES     
    8594 OW          44.5180    14.5420   -70.6510 OW            1 RES     
    8595 HW1         43.6070    14.1780   -70.4620 HW1           1 RES     
    8596 HW2         45.1090    13.8080   -70.9850 HW2           1 RES     
    8597 OW          32.9360    35.8290   -73.0170 OW            1 RES     
    8598 HW1         32.0450    35.3920   -73.1310 HW1           1 RES     
    8599 HW2         33.6580    35.1420   -73.0970 HW2           1 RES     
    8600 OW          33.1350    -3.4850   -62.1870 OW            1 RES     
    8601 HW1         33.1050    -4.1870   -62.8980 HW1           1 RES     
    8602 HW2         33.9700    -2.9450   -62.2870 HW2           1 RES     
    8603 OW          35.3110    39.2970   -65.2530 OW            1 RES     
    8604 HW1         34.3150    39.3250   -65.3250 HW1           1 RES     
    8605 HW2         35.6770    38.6530   -65.9240 HW2           1 RES     
    8606 OW          39.6460    30.6390   -70.5850 OW            1 RES     
    8607 HW1         38.9130    31.2410   -70.2680 HW1           1 RES     
    8608 HW2         40.4080    31.1910   -70.9230 HW2           1 RES     
    8609 OW          43.6340    30.9310   -69.0190 OW            1 RES     
    8610 HW1         44.2740    30.1630   -69.0140 HW1           1 RES     
    8611 HW2         42.6970    30.5840   -69.0650 HW2           1 RES     
    8612 OW          30.6080    42.1830   -59.6510 OW            1 RES     
    8613 HW1         30.8210    41.2130   -59.5350 HW1           1 RES     
    8614 HW2         31.3190    42.6160   -60.2060 HW2           1 RES     
    8615 OW          37.4110     2.5560   -69.8910 OW            1 RES     
    8616 HW1         37.4880     2.8960   -68.9540 HW1           1 RES     
    8617 HW2         36.6150     1.9560   -69.9640 HW2           1 RES     
    8618 OW          28.4800    20.0370   -70.9090 OW            1 RES     
    8619 HW1         27.4880    19.9210   -70.8700 HW1           1 RES     
    8620 HW2         28.9200    19.1390   -70.9470 HW2           1 RES     
    8621 OW          23.6430    33.9530   -66.7310 OW            1 RES     
    8622 HW1         24.2540    33.1630   -66.7180 HW1           1 RES     
    8623 HW2         22.6930    33.6420   -66.6950 HW2           1 RES     
    8624 OW          13.1750     6.2690   -61.5470 OW            1 RES     
    8625 HW1         13.2040     6.4410   -60.5630 HW1           1 RES     
    8626 HW2         14.0500     5.8870   -61.8460 HW2           1 RES     
    8627 OW          35.0650    20.1620   -58.8110 OW            1 RES     
    8628 HW1         34.3630    20.7780   -59.1690 HW1           1 RES     
    8629 HW2         35.9680    20.5680   -58.9530 HW2           1 RES     
    8630 OW          -3.6850    37.7310   -69.2240 OW            1 RES     
    8631 HW1         -2.7980    38.0470   -69.5590 HW1           1 RES     
    8632 HW2         -3.5750    36.8440   -68.7760 HW2           1 RES     
    8633 OW          28.2770     1.7150   -59.2180 OW            1 RES     
    8634 HW1         27.9520     0.9480   -58.6660 HW1           1 RES     
    8635 HW2         29.0510     1.4200   -59.7780 HW2           1 RES     
    8636 OW          12.2210    12.0540   -65.8650 OW            1 RES     
    8637 HW1         12.2190    12.9980   -66.1940 HW1           1 RES     
    8638 HW2         12.3030    12.0480   -64.8690 HW2           1 RES     
    8639 OW          10.2440     1.2850   -58.7830 OW            1 RES     
    8640 HW1         11.2240     1.4550   -58.6920 HW1           1 RES     
    8641 HW2         10.0470     0.3320   -58.5510 HW2           1 RES     
    8642 OW          36.9250    32.9340   -61.2790 OW            1 RES     
    8643 HW1         37.5800    32.5960   -61.9530 HW1           1 RES     
    8644 HW2         36.5310    32.1630   -60.7790 HW2           1 RES     
    8645 OW          45.0960    -1.4500   -63.7010 OW            1 RES     
    8646 HW1         45.1090    -1.7990   -64.6370 HW1           1 RES     
    8647 HW2         44.2610    -1.7540   -63.2430 HW2           1 RES     
    8648 OW          32.4770    -2.2090   -60.5100 OW            1 RES     
    8649 HW1         31.6800    -2.8070   -60.4310 HW1           1 RES     
    8650 HW2         32.1740    -1.2640   -60.6360 HW2           1 RES     
    8651 OW           2.7020    32.2420   -59.2510 OW            1 RES     
    8652 HW1          2.6070    31.2790   -59.0030 HW1           1 RES     
    8653 HW2          3.2360    32.7160   -58.5510 HW2           1 RES     
    8654 OW          -2.3530    38.3610   -62.6120 OW            1 RES     
    8655 HW1         -2.1330    39.3340   -62.5610 HW1           1 RES     
    8656 HW2         -3.3460    38.2420   -62.6040 HW2           1 RES     
    8657 OW          38.5100    34.2310   -70.9410 OW            1 RES     
    8658 HW1         38.9800    33.4220   -70.5900 HW1           1 RES     
    8659 HW2         37.7520    33.9480   -71.5300 HW2           1 RES     
    8660 OW          10.5390     2.1500   -61.7700 OW            1 RES     
    8661 HW1         11.4660     2.4250   -62.0210 HW1           1 RES     
    8662 HW2         10.5750     1.3130   -61.2240 HW2           1 RES     
    8663 OW          25.7730    22.1000   -70.4880 OW            1 RES     
    8664 HW1         25.3730    22.7710   -69.8640 HW1           1 RES     
    8665 HW2         25.9760    21.2580   -69.9890 HW2           1 RES     
    8666 OW          27.5280     6.7300   -61.8940 OW            1 RES     
    8667 HW1         26.7780     6.1090   -62.1160 HW1           1 RES     
    8668 HW2         27.2230     7.3890   -61.2050 HW2           1 RES     
    8669 OW           3.0310    34.5630   -65.6700 OW            1 RES     
    8670 HW1          2.4800    33.7940   -65.9930 HW1           1 RES     
    8671 HW2          3.0120    34.5920   -64.6710 HW2           1 RES     
    8672 OW          35.2450    13.1800   -69.6400 OW            1 RES     
    8673 HW1         35.8140    12.8090   -70.3730 HW1           1 RES     
    8674 HW2         34.5670    13.8050   -70.0280 HW2           1 RES     
    8675 OW          44.9640    -0.6520   -71.1960 OW            1 RES     
    8676 HW1         44.0180    -0.9190   -71.0180 HW1           1 RES     
    8677 HW2         45.1080    -0.5710   -72.1820 HW2           1 RES     
    8678 OW          33.1480    17.6370   -63.2790 OW            1 RES     
    8679 HW1         32.2010    17.3260   -63.2080 HW1           1 RES     
    8680 HW2         33.5810    17.5980   -62.3780 HW2           1 RES     
    8681 OW          13.1730    38.6830   -73.3550 OW            1 RES     
    8682 HW1         13.8850    38.8480   -74.0380 HW1           1 RES     
    8683 HW2         12.8030    39.5580   -73.0410 HW2           1 RES     
    8684 OW          -5.1510    -2.7090   -64.7390 OW            1 RES     
    8685 HW1         -4.9670    -2.4550   -63.7900 HW1           1 RES     
    8686 HW2         -5.9980    -3.2400   -64.7840 HW2           1 RES     
    8687 OW          18.9770    10.0150   -61.6060 OW            1 RES     
    8688 HW1         18.1710    10.1660   -61.0340 HW1           1 RES     
    8689 HW2         19.1950     9.0390   -61.6260 HW2           1 RES     
    8690 OW          31.8690    36.0570   -69.6100 OW            1 RES     
    8691 HW1         31.1080    36.6910   -69.7450 HW1           1 RES     
    8692 HW2         32.7200    36.4880   -69.9110 HW2           1 RES     
    8693 OW          24.5640    19.3070   -62.9990 OW            1 RES     
    8694 HW1         23.6400    19.6590   -62.8490 HW1           1 RES     
    8695 HW2         25.2260    19.9070   -62.5500 HW2           1 RES     
    8696 OW          -1.4410    42.4970   -58.6810 OW            1 RES     
    8697 HW1         -0.9700    41.6960   -59.0490 HW1           1 RES     
    8698 HW2         -2.4090    42.2850   -58.5510 HW2           1 RES     
    8699 OW          -2.9260    28.1560   -70.3490 OW            1 RES     
    8700 HW1         -2.6210    27.6540   -69.5400 HW1           1 RES     
    8701 HW2         -3.6850    28.7580   -70.1020 HW2           1 RES     
    8702 OW          27.6020     8.2700   -72.0900 OW            1 RES     
    8703 HW1         27.6140     7.5540   -71.3920 HW1           1 RES     
    8704 HW2         26.6670     8.6030   -72.2100 HW2           1 RES     
    8705 OW          15.8700    14.5480   -61.6860 OW            1 RES     
    8706 HW1         16.0020    15.2780   -62.3550 HW1           1 RES     
    8707 HW2         15.3450    13.8050   -62.1020 HW2           1 RES     
    8708 OW          18.2600    15.9550   -63.7440 OW            1 RES     
    8709 HW1         17.4440    16.3430   -64.1710 HW1           1 RES     
    8710 HW2         18.1000    15.8370   -62.7630 HW2           1 RES     
    8711 OW           7.0860    18.4960   -67.5230 OW            1 RES     
    8712 HW1          7.8000    17.8570   -67.8060 HW1           1 RES     
    8713 HW2          7.5010    19.2720   -67.0480 HW2           1 RES     
    8714 OW          21.3410    35.5720   -62.6380 OW            1 RES     
    8715 HW1         21.2540    36.3030   -61.9610 HW1           1 RES     
    8716 HW2         21.4130    35.9710   -63.5520 HW2           1 RES     
    8717 OW          -2.2530    40.4860   -71.7490 OW            1 RES     
    8718 HW1         -1.8150    39.6020   -71.5890 HW1           1 RES     
    8719 HW2         -2.3280    40.9830   -70.8840 HW2           1 RES     
    8720 OW          31.2810    20.0140   -62.7190 OW            1 RES     
    8721 HW1         32.0900    19.6520   -63.1810 HW1           1 RES     
    8722 HW2         30.8510    20.7100   -63.2950 HW2           1 RES     
    8723 OW          32.2920    31.5380   -61.7320 OW            1 RES     
    8724 HW1         32.3820    32.1550   -62.5130 HW1           1 RES     
    8725 HW2         32.8380    31.8840   -60.9680 HW2           1 RES     
    8726 OW          14.2230    17.7580   -66.1860 OW            1 RES     
    8727 HW1         13.7680    17.0010   -65.7180 HW1           1 RES     
    8728 HW2         14.3670    18.5100   -65.5420 HW2           1 RES     
    8729 OW          37.9640    20.0120   -74.0390 OW            1 RES     
    8730 HW1         37.3450    19.5950   -73.3750 HW1           1 RES     
    8731 HW2         38.7640    20.3810   -73.5640 HW2           1 RES     
    8732 OW          13.9600    39.6720   -61.1870 OW            1 RES     
    8733 HW1         13.3600    40.4530   -61.0150 HW1           1 RES     
    8734 HW2         14.8300    39.9940   -61.5600 HW2           1 RES     
    8735 OW          10.2480    -2.3580   -65.1280 OW            1 RES     
    8736 HW1          9.7040    -1.5200   -65.0950 HW1           1 RES     
    8737 HW2          9.6430    -3.1510   -65.0470 HW2           1 RES     
    8738 OW          23.8640     7.1620   -66.0470 OW            1 RES     
    8739 HW1         22.8780     7.0380   -65.9470 HW1           1 RES     
    8740 HW2         24.2800     7.2780   -65.1450 HW2           1 RES     
    8741 OW           2.9890    29.1450   -68.1360 OW            1 RES     
    8742 HW1          2.9400    30.1320   -67.9900 HW1           1 RES     
    8743 HW2          3.5950    28.7350   -67.4550 HW2           1 RES     
    8744 OW          10.1120    35.4700   -72.5020 OW            1 RES     
    8745 HW1          9.3570    34.8640   -72.7500 HW1           1 RES     
    8746 HW2         10.6670    35.0370   -71.7910 HW2           1 RES     
    8747 OW          37.5260    29.9570   -63.5990 OW            1 RES     
    8748 HW1         38.5240    29.9230   -63.5650 HW1           1 RES     
    8749 HW2         37.2250    30.9110   -63.6020 HW2           1 RES     
    8750 OW           9.5650     8.1360   -69.0720 OW            1 RES     
    8751 HW1          8.6630     8.4650   -69.3490 HW1           1 RES     
    8752 HW2         10.1990     8.9070   -69.0160 HW2           1 RES     
    8753 OW          14.1490    31.3110   -58.6020 OW            1 RES     
    8754 HW1         14.5850    30.4130   -58.5510 HW1           1 RES     
    8755 HW2         13.1580    31.1980   -58.6780 HW2           1 RES     
    8756 OW          33.7420     9.3900   -61.3350 OW            1 RES     
    8757 HW1         34.3640     9.8690   -60.7160 HW1           1 RES     
    8758 HW2         33.9660     8.4160   -61.3440 HW2           1 RES     
    8759 OW          12.9930    -0.4290   -60.7840 OW            1 RES     
    8760 HW1         12.7770    -1.2380   -61.3300 HW1           1 RES     
    8761 HW2         12.5680     0.3770   -61.1970 HW2           1 RES     
    8762 OW          37.6740     7.5280   -70.3390 OW            1 RES     
    8763 HW1         37.0120     7.5770   -71.0860 HW1           1 RES     
    8764 HW2         37.6390     8.3730   -69.8050 HW2           1 RES     
    8765 OW          -6.0250    18.1320   -71.7990 OW            1 RES     
    8766 HW1         -5.1220    18.5540   -71.7280 HW1           1 RES     
    8767 HW2         -5.9290    17.1360   -71.7970 HW2           1 RES     
    8768 OW          31.5770     3.1090   -68.4350 OW            1 RES     
    8769 HW1         32.4940     3.4820   -68.2960 HW1           1 RES     
    8770 HW2         31.2280     3.4040   -69.3250 HW2           1 RES     
    8771 OW          -1.2730     6.8820   -64.4340 OW            1 RES     
    8772 HW1         -1.5240     7.7260   -64.9070 HW1           1 RES     
    8773 HW2         -2.0980     6.3550   -64.2310 HW2           1 RES     
    8774 OW          40.1810    11.1890   -67.0550 OW            1 RES     
    8775 HW1         40.9580    10.5890   -67.2410 HW1           1 RES     
    8776 HW2         39.3360    10.7430   -67.3510 HW2           1 RES     
    8777 OW          37.5770     5.2900   -70.0580 OW            1 RES     
    8778 HW1         38.2170     4.5700   -70.3270 HW1           1 RES     
    8779 HW2         36.7890     4.8800   -69.5980 HW2           1 RES     
    8780 OW           1.7230     4.1940   -60.1970 OW            1 RES     
    8781 HW1          1.4400     4.9670   -59.6300 HW1           1 RES     
    8782 HW2          2.7010     4.2630   -60.3920 HW2           1 RES     
    8783 OW          44.2150    26.8230   -66.7130 OW            1 RES     
    8784 HW1         43.5080    26.1170   -66.7280 HW1           1 RES     
    8785 HW2         45.1080    26.4050   -66.8820 HW2           1 RES     
    8786 OW          16.0900    18.4620   -69.8860 OW            1 RES     
    8787 HW1         15.4240    17.7180   -69.8610 HW1           1 RES     
    8788 HW2         15.7510    19.2320   -69.3450 HW2           1 RES     
    8789 OW          37.8310    36.0890   -62.1600 OW            1 RES     
    8790 HW1         38.6690    35.9090   -62.6740 HW1           1 RES     
    8791 HW2         38.0240    36.0390   -61.1800 HW2           1 RES     
    8792 OW          -1.9700     0.0720   -69.5770 OW            1 RES     
    8793 HW1         -2.5060     0.4550   -70.3280 HW1           1 RES     
    8794 HW2         -1.2770    -0.5490   -69.9450 HW2           1 RES     
    8795 OW          18.6950    29.5160   -60.2820 OW            1 RES     
    8796 HW1         18.3650    28.5940   -60.4840 HW1           1 RES     
    8797 HW2         18.0230    30.1870   -60.5940 HW2           1 RES     
    8798 OW          -2.8140    34.0940   -60.7250 OW            1 RES     
    8799 HW1         -3.4660    34.4560   -60.0600 HW1           1 RES     
    8800 HW2         -2.0110    34.6890   -60.7630 HW2           1 RES     
    8801 OW          35.2520     1.4210   -65.0420 OW            1 RES     
    8802 HW1         34.3620     1.8640   -65.1420 HW1           1 RES     
    8803 HW2         35.4950     0.9640   -65.8980 HW2           1 RES     
    8804 OW          20.8540    24.4720   -65.6090 OW            1 RES     
    8805 HW1         21.7910    24.1650   -65.4460 HW1           1 RES     
    8806 HW2         20.4760    24.8540   -64.7660 HW2           1 RES     
    8807 OW          41.3320    29.1890   -64.6950 OW            1 RES     
    8808 HW1         40.3770    29.3690   -64.9260 HW1           1 RES     
    8809 HW2         41.6860    29.9350   -64.1300 HW2           1 RES     
    8810 OW          24.9250    10.3720   -65.1820 OW            1 RES     
    8811 HW1         25.5610    10.5980   -65.9190 HW1           1 RES     
    8812 HW2         25.1200     9.4510   -64.8420 HW2           1 RES     
    8813 OW          16.8560    12.7820   -68.9110 OW            1 RES     
    8814 HW1         16.7600    13.5750   -69.5120 HW1           1 RES     
    8815 HW2         16.0390    12.2090   -68.9810 HW2           1 RES     
    8816 OW          29.5020     5.9120   -69.0580 OW            1 RES     
    8817 HW1         29.2640     6.1470   -68.1150 HW1           1 RES     
    8818 HW2         30.3980     6.2950   -69.2810 HW2           1 RES     
    8819 OW          14.4350    14.4920   -68.3840 OW            1 RES     
    8820 HW1         13.4390    14.4720   -68.3150 HW1           1 RES     
    8821 HW2         14.7380    15.4280   -68.5670 HW2           1 RES     
    8822 OW          30.0870    41.6410   -72.3830 OW            1 RES     
    8823 HW1         31.0280    41.9730   -72.3260 HW1           1 RES     
    8824 HW2         29.4600    42.4190   -72.4090 HW2           1 RES     
    8825 OW          43.4790    39.2630   -73.4550 OW            1 RES     
    8826 HW1         43.3570    39.3300   -72.4660 HW1           1 RES     
    8827 HW2         42.5850    39.2940   -73.9040 HW2           1 RES     
    8828 OW          38.1340    31.5270   -67.0360 OW            1 RES     
    8829 HW1         38.6780    30.7880   -66.6400 HW1           1 RES     
    8830 HW2         37.2490    31.1690   -67.3340 HW2           1 RES     
    8831 OW          37.3530     7.5760   -64.8010 OW            1 RES     
    8832 HW1         37.7210     6.6470   -64.7760 HW1           1 RES     
    8833 HW2         38.1010     8.2280   -64.9270 HW2           1 RES     
    8834 OW          27.6480     0.5560   -65.2300 OW            1 RES     
    8835 HW1         27.8990     1.0490   -66.0620 HW1           1 RES     
    8836 HW2         28.2150    -0.2630   -65.1420 HW2           1 RES     
    8837 OW          -2.1740    24.8860   -73.0380 OW            1 RES     
    8838 HW1         -2.8870    24.2770   -73.3830 HW1           1 RES     
    8839 HW2         -2.5220    25.8230   -73.0050 HW2           1 RES     
    8840 OW           4.7920    23.2870   -68.8730 OW            1 RES     
    8841 HW1          5.5110    22.6210   -68.6730 HW1           1 RES     
    8842 HW2          5.2060    24.1770   -69.0660 HW2           1 RES     
    8843 OW           6.6020     2.3670   -59.2110 OW            1 RES     
    8844 HW1          7.3180     2.5940   -58.5510 HW1           1 RES     
    8845 HW2          6.7930     1.4720   -59.6150 HW2           1 RES     
    8846 OW           4.0080    36.2390   -59.4970 OW            1 RES     
    8847 HW1          3.6700    35.4390   -59.9920 HW1           1 RES     
    8848 HW2          4.2590    36.9540   -60.1500 HW2           1 RES     
    8849 OW          -3.1490    10.3180   -61.8320 OW            1 RES     
    8850 HW1         -2.1730    10.5310   -61.8120 HW1           1 RES     
    8851 HW2         -3.3300     9.5250   -61.2500 HW2           1 RES     
    8852 OW           7.8300    37.0500   -59.5730 OW            1 RES     
    8853 HW1          8.7270    36.6100   -59.6090 HW1           1 RES     
    8854 HW2          7.9420    38.0420   -59.6230 HW2           1 RES     
    8855 OW          20.5330    24.2330   -69.3510 OW            1 RES     
    8856 HW1         20.7870    24.3770   -68.3950 HW1           1 RES     
    8857 HW2         20.7710    25.0440   -69.8860 HW2           1 RES     
    8858 OW          12.9380    30.0980   -64.8130 OW            1 RES     
    8859 HW1         12.0820    30.4020   -65.2290 HW1           1 RES     
    8860 HW2         12.9750    29.0990   -64.8180 HW2           1 RES     
    8861 OW          37.3060    19.5880   -63.4510 OW            1 RES     
    8862 HW1         38.1910    20.0340   -63.3190 HW1           1 RES     
    8863 HW2         36.5860    20.1460   -63.0370 HW2           1 RES     
    8864 OW          17.5330    18.8080   -62.6240 OW            1 RES     
    8865 HW1         16.5440    18.6620   -62.6300 HW1           1 RES     
    8866 HW2         17.7260    19.7890   -62.6120 HW2           1 RES     
    8867 OW          18.5850    35.7460   -72.1400 OW            1 RES     
    8868 HW1         19.1660    36.2010   -71.4660 HW1           1 RES     
    8869 HW2         18.6480    34.7550   -72.0210 HW2           1 RES     
    8870 OW           0.7200    10.6910   -63.1930 OW            1 RES     
    8871 HW1          1.0080    11.6050   -62.9080 HW1           1 RES     
    8872 HW2          1.5200    10.1610   -63.4740 HW2           1 RES     
    8873 OW          -5.5080    20.4500   -67.7550 OW            1 RES     
    8874 HW1         -6.0700    20.0030   -67.0600 HW1           1 RES     
    8875 HW2         -6.0560    21.1330   -68.2390 HW2           1 RES     
    8876 OW          31.0120    28.5750   -69.2490 OW            1 RES     
    8877 HW1         30.0730    28.8950   -69.1260 HW1           1 RES     
    8878 HW2         31.6220    29.3600   -69.3560 HW2           1 RES     
    8879 OW          23.3100     4.2910   -59.6220 OW            1 RES     
    8880 HW1         23.3270     5.2720   -59.8140 HW1           1 RES     
    8881 HW2         24.0600     4.0600   -59.0010 HW2           1 RES     
    8882 OW          37.2200    21.9070   -73.2040 OW            1 RES     
    8883 HW1         36.6790    22.0100   -72.3700 HW1           1 RES     
    8884 HW2         37.6940    22.7650   -73.4030 HW2           1 RES     
    8885 OW           4.3590    40.3380   -66.8010 OW            1 RES     
    8886 HW1          3.3840    40.5530   -66.8500 HW1           1 RES     
    8887 HW2          4.8860    41.1870   -66.7560 HW2           1 RES     
    8888 OW          37.9850    28.2050   -71.4400 OW            1 RES     
    8889 HW1         38.8320    28.5280   -71.8600 HW1           1 RES     
    8890 HW2         38.0700    28.2410   -70.4440 HW2           1 RES     
    8891 OW          29.2190    39.3600   -72.2240 OW            1 RES     
    8892 HW1         28.2410    39.4930   -72.0720 HW1           1 RES     
    8893 HW2         29.7080    39.4530   -71.3560 HW2           1 RES     
    8894 OW           0.7460    33.2130   -73.9170 OW            1 RES     
    8895 HW1          0.2520    32.3620   -73.7420 HW1           1 RES     
    8896 HW2          0.0910    33.9600   -74.0390 HW2           1 RES     
    8897 OW          16.4620     0.2180   -72.8870 OW            1 RES     
    8898 HW1         15.4980     0.4500   -72.7610 HW1           1 RES     
    8899 HW2         16.6030    -0.7490   -72.6750 HW2           1 RES     
    8900 OW          30.0330    32.1780   -70.8090 OW            1 RES     
    8901 HW1         29.0770    32.4150   -70.6440 HW1           1 RES     
    8902 HW2         30.1650    31.1970   -70.6630 HW2           1 RES     
    8903 OW          26.0900     0.1630   -66.9460 OW            1 RES     
    8904 HW1         25.6930    -0.7540   -66.9610 HW1           1 RES     
    8905 HW2         25.6380     0.7110   -66.2410 HW2           1 RES     
    8906 OW          28.1890    19.0330   -66.4190 OW            1 RES     
    8907 HW1         27.4010    18.4910   -66.7090 HW1           1 RES     
    8908 HW2         27.9740    20.0070   -66.5060 HW2           1 RES     
    8909 OW          30.3330    27.0320   -66.9070 OW            1 RES     
    8910 HW1         29.5080    26.5260   -66.6590 HW1           1 RES     
    8911 HW2         30.9790    26.4160   -67.3590 HW2           1 RES     
    8912 OW           9.1200    11.9180   -66.4860 OW            1 RES     
    8913 HW1          8.4030    12.4040   -65.9880 HW1           1 RES     
    8914 HW2          9.8430    12.5610   -66.7420 HW2           1 RES     
    8915 OW          31.1930    35.4100   -64.6830 OW            1 RES     
    8916 HW1         30.4480    35.9330   -65.0950 HW1           1 RES     
    8917 HW2         31.5620    35.9130   -63.9010 HW2           1 RES     
    8918 OW          38.9250    31.8170   -73.1210 OW            1 RES     
    8919 HW1         39.8490    32.1160   -72.8850 HW1           1 RES     
    8920 HW2         38.3220    32.6130   -73.1830 HW2           1 RES     
    8921 OW          13.9220    31.9010   -63.6370 OW            1 RES     
    8922 HW1         14.5300    32.5190   -63.1410 HW1           1 RES     
    8923 HW2         14.1230    31.9490   -64.6160 HW2           1 RES     
    8924 OW          44.4660     2.4900   -62.3980 OW            1 RES     
    8925 HW1         43.9690     3.1510   -62.9600 HW1           1 RES     
    8926 HW2         45.1090     2.9730   -61.8040 HW2           1 RES     
    8927 OW          13.3040     8.5570   -66.4420 OW            1 RES     
    8928 HW1         13.5640     8.3820   -67.3910 HW1           1 RES     
    8929 HW2         12.7620     7.7900   -66.0980 HW2           1 RES     
    8930 OW           4.8990    11.2140   -64.9600 OW            1 RES     
    8931 HW1          4.5850    12.0980   -65.3060 HW1           1 RES     
    8932 HW2          5.8970    11.1770   -64.9960 HW2           1 RES     
    8933 OW           3.7120    22.1590   -64.8830 OW            1 RES     
    8934 HW1          3.5220    21.5120   -65.6200 HW1           1 RES     
    8935 HW2          2.8520    22.4370   -64.4530 HW2           1 RES     
    8936 OW          29.3420    -3.6990   -61.3900 OW            1 RES     
    8937 HW1         30.1070    -4.3150   -61.2100 HW1           1 RES     
    8938 HW2         29.6230    -2.7560   -61.2110 HW2           1 RES     
    8939 OW          15.4970    19.7160   -71.8680 OW            1 RES     
    8940 HW1         16.4710    19.9330   -71.8120 HW1           1 RES     
    8941 HW2         15.3800    18.7260   -71.9520 HW2           1 RES     
    8942 OW          27.4830    30.5620   -68.7850 OW            1 RES     
    8943 HW1         27.9440    30.8200   -69.6330 HW1           1 RES     
    8944 HW2         28.0730    29.9530   -68.2560 HW2           1 RES     
    8945 OW          -0.4800     7.6910   -70.1100 OW            1 RES     
    8946 HW1         -1.2070     7.2900   -69.5530 HW1           1 RES     
    8947 HW2          0.2930     7.9340   -69.5240 HW2           1 RES     
    8948 OW          -1.4690    11.1920   -64.7470 OW            1 RES     
    8949 HW1         -2.2650    10.6420   -64.9980 HW1           1 RES     
    8950 HW2         -1.7460    12.1460   -64.6290 HW2           1 RES     
    8951 OW           3.4900    18.5290   -69.8790 OW            1 RES     
    8952 HW1          3.6970    18.6230   -70.8520 HW1           1 RES     
    8953 HW2          2.5060    18.6350   -69.7350 HW2           1 RES     
    8954 OW          23.3990    40.3980   -69.5620 OW            1 RES     
    8955 HW1         24.2410    39.8770   -69.6920 HW1           1 RES     
    8956 HW2         22.6600    39.9760   -70.0880 HW2           1 RES     
    8957 OW          -6.0370    20.2330   -72.8180 OW            1 RES     
    8958 HW1         -6.7730    20.7790   -72.4200 HW1           1 RES     
    8959 HW2         -6.4190    19.5900   -73.4830 HW2           1 RES     
    8960 OW           7.4670    27.1270   -66.9510 OW            1 RES     
    8961 HW1          7.7710    27.8560   -66.3390 HW1           1 RES     
    8962 HW2          8.2600    26.7150   -67.4010 HW2           1 RES     
    8963 OW          -5.7570    37.6130   -65.4070 OW            1 RES     
    8964 HW1         -4.9330    38.1740   -65.4720 HW1           1 RES     
    8965 HW2         -5.7030    36.8610   -66.0650 HW2           1 RES     
    8966 OW          35.8990    27.9810   -70.6890 OW            1 RES     
    8967 HW1         36.0570    27.6940   -69.7440 HW1           1 RES     
    8968 HW2         35.0860    28.5610   -70.7300 HW2           1 RES     
    8969 OW           7.3710    15.9990   -59.2010 OW            1 RES     
    8970 HW1          7.0150    16.6800   -58.5620 HW1           1 RES     
    8971 HW2          8.2930    16.2590   -59.4870 HW2           1 RES     
    8972 OW          22.3500    17.4940   -65.4260 OW            1 RES     
    8973 HW1         21.7330    17.7500   -64.6830 HW1           1 RES     
    8974 HW2         21.9040    16.8200   -66.0140 HW2           1 RES     
    8975 OW          15.1740    39.4280   -58.6290 OW            1 RES     
    8976 HW1         15.9440    38.7930   -58.5720 HW1           1 RES     
    8977 HW2         14.3210    38.9130   -58.7150 HW2           1 RES     
    8978 OW          18.4700    32.3360   -74.0390 OW            1 RES     
    8979 HW1         19.3850    32.2680   -73.6420 HW1           1 RES     
    8980 HW2         18.1720    33.2900   -74.0310 HW2           1 RES     
    8981 OW          26.9280    33.2710   -70.3270 OW            1 RES     
    8982 HW1         27.4330    33.8450   -70.9720 HW1           1 RES     
    8983 HW2         26.0270    33.0580   -70.7050 HW2           1 RES     
    8984 OW           1.7330     1.3780   -60.4810 OW            1 RES     
    8985 HW1          2.0430     0.5370   -60.0390 HW1           1 RES     
    8986 HW2          2.4550     2.0680   -60.4300 HW2           1 RES     
    8987 OW          28.3630    24.2290   -72.2850 OW            1 RES     
    8988 HW1         27.3890    24.2310   -72.5090 HW1           1 RES     
    8989 HW2         28.6070    23.3540   -71.8660 HW2           1 RES     
    8990 OW          27.4980     4.9640   -68.6820 OW            1 RES     
    8991 HW1         26.9190     5.7610   -68.8540 HW1           1 RES     
    8992 HW2         26.9400     4.1340   -68.7090 HW2           1 RES     
    8993 OW          14.0050    34.0260   -67.0940 OW            1 RES     
    8994 HW1         13.8990    33.5910   -67.9870 HW1           1 RES     
    8995 HW2         14.5000    33.4110   -66.4800 HW2           1 RES     
    8996 OW          10.6600    14.2650   -65.2970 OW            1 RES     
    8997 HW1         11.2690    14.9690   -65.6600 HW1           1 RES     
    8998 HW2         10.8960    14.0790   -64.3430 HW2           1 RES     
    8999 OW          20.3170    11.7340   -60.2010 OW            1 RES     
    9000 HW1         19.3280    11.8500   -60.1150 HW1           1 RES     
    9001 HW2         20.5940    11.9220   -61.1430 HW2           1 RES     
    9002 OW          13.5920    37.0520   -68.4420 OW            1 RES     
    9003 HW1         14.2180    36.2770   -68.3530 HW1           1 RES     
    9004 HW2         14.1180    37.9020   -68.4800 HW2           1 RES     
    9005 OW          41.6540    19.6010   -70.5350 OW            1 RES     
    9006 HW1         41.7900    20.3990   -69.9500 HW1           1 RES     
    9007 HW2         40.6890    19.5320   -70.7880 HW2           1 RES     
    9008 OW           2.2150    18.3360   -67.0010 OW            1 RES     
    9009 HW1          3.1400    18.3050   -67.3770 HW1           1 RES     
    9010 HW2          2.1650    17.7550   -66.1880 HW2           1 RES     
    9011 OW          43.2530    22.9540   -60.4380 OW            1 RES     
    9012 HW1         42.3530    22.7070   -60.7940 HW1           1 RES     
    9013 HW2         43.1850    23.1380   -59.4570 HW2           1 RES     
    9014 OW          14.9160    -0.4650   -62.1160 OW            1 RES     
    9015 HW1         15.5000     0.2000   -62.5800 HW1           1 RES     
    9016 HW2         14.4100    -0.9960   -62.7950 HW2           1 RES     
    9017 OW          32.0410    37.7390   -72.3920 OW            1 RES     
    9018 HW1         32.7440    37.7910   -71.6830 HW1           1 RES     
    9019 HW2         31.2040    37.3520   -72.0050 HW2           1 RES     
    9020 OW          13.2330    34.9320   -70.1400 OW            1 RES     
    9021 HW1         12.3960    34.3860   -70.1240 HW1           1 RES     
    9022 HW2         14.0230    34.3290   -70.2500 HW2           1 RES     
    9023 OW          14.9070    -2.9470   -59.7100 OW            1 RES     
    9024 HW1         15.2820    -2.1210   -59.2920 HW1           1 RES     
    9025 HW2         15.6480    -3.4830   -60.1160 HW2           1 RES     
    9026 OW          -0.6060    21.6140   -61.0420 OW            1 RES     
    9027 HW1          0.0560    20.8650   -61.0240 HW1           1 RES     
    9028 HW2         -1.5320    21.2400   -61.0900 HW2           1 RES     
    9029 OW           8.7790    -1.2980   -67.4170 OW            1 RES     
    9030 HW1          8.7800    -2.1940   -66.9750 HW1           1 RES     
    9031 HW2          9.6730    -1.1310   -67.8340 HW2           1 RES     
    9032 OW          -0.3730    14.3680   -71.1020 OW            1 RES     
    9033 HW1         -0.9500    14.9050   -70.4880 HW1           1 RES     
    9034 HW2         -0.0570    13.5450   -70.6290 HW2           1 RES     
    9035 OW          10.4370    30.2140   -67.5490 OW            1 RES     
    9036 HW1         11.1140    29.6610   -67.0640 HW1           1 RES     
    9037 HW2         10.0430    30.8860   -66.9220 HW2           1 RES     
    9038 OW          23.6250    25.6430   -65.9670 OW            1 RES     
    9039 HW1         24.4580    26.1550   -65.7580 HW1           1 RES     
    9040 HW2         23.8600    24.6900   -66.1630 HW2           1 RES     
    9041 OW          27.9210    18.1620   -61.1940 OW            1 RES     
    9042 HW1         26.9600    18.4230   -61.2840 HW1           1 RES     
    9043 HW2         28.0850    17.8020   -60.2760 HW2           1 RES     
    9044 OW           5.1140    16.3250   -68.9820 OW            1 RES     
    9045 HW1          6.0980    16.1660   -68.9090 HW1           1 RES     
    9046 HW2          4.8980    17.2430   -68.6510 HW2           1 RES     
    9047 OW          44.3210    -2.1160   -67.7750 OW            1 RES     
    9048 HW1         43.9710    -2.0270   -66.8440 HW1           1 RES     
    9049 HW2         43.9620    -1.3730   -68.3400 HW2           1 RES     
    9050 OW          37.5430     4.5550   -62.1110 OW            1 RES     
    9051 HW1         38.1650     5.3040   -62.3370 HW1           1 RES     
    9052 HW2         37.3560     4.0170   -62.9340 HW2           1 RES     
    9053 OW          40.3220    13.7540   -60.5620 OW            1 RES     
    9054 HW1         40.4140    12.7610   -60.4990 HW1           1 RES     
    9055 HW2         41.1880    14.1870   -60.3110 HW2           1 RES     
    9056 OW          -5.8380    41.1810   -59.3090 OW            1 RES     
    9057 HW1         -6.1290    41.7770   -58.5600 HW1           1 RES     
    9058 HW2         -6.6190    40.6480   -59.6340 HW2           1 RES     
    9059 OW           6.7920    13.4750   -61.5710 OW            1 RES     
    9060 HW1          7.5310    12.8120   -61.6930 HW1           1 RES     
    9061 HW2          6.5980    13.9220   -62.4450 HW2           1 RES     
    9062 OW          29.8900    28.6330   -71.8440 OW            1 RES     
    9063 HW1         30.5820    29.1400   -71.3310 HW1           1 RES     
    9064 HW2         28.9890    28.7950   -71.4410 HW2           1 RES     
    9065 OW           8.3730    19.4100   -72.5220 OW            1 RES     
    9066 HW1          8.2760    18.4270   -72.3710 HW1           1 RES     
    9067 HW2          9.3440    19.6470   -72.5620 HW2           1 RES     
    9068 OW          23.0990     3.8450   -67.6290 OW            1 RES     
    9069 HW1         22.7190     4.7650   -67.7160 HW1           1 RES     
    9070 HW2         22.5630     3.3230   -66.9650 HW2           1 RES     
    9071 OW          35.4080     0.7310   -74.0330 OW            1 RES     
    9072 HW1         35.4460     1.7300   -74.0320 HW1           1 RES     
    9073 HW2         36.3370     0.3620   -74.0390 HW2           1 RES     
    9074 OW           5.0610    26.4450   -64.0160 OW            1 RES     
    9075 HW1          5.7930    26.8940   -64.5270 HW1           1 RES     
    9076 HW2          5.0470    26.7930   -63.0780 HW2           1 RES     
    9077 OW          31.4250    14.4340   -69.4930 OW            1 RES     
    9078 HW1         31.0740    13.6480   -68.9860 HW1           1 RES     
    9079 HW2         32.3720    14.6100   -69.2220 HW2           1 RES     
    9080 OW          25.4380    26.3290   -59.3450 OW            1 RES     
    9081 HW1         24.4880    26.5970   -59.1890 HW1           1 RES     
    9082 HW2         25.5380    25.3460   -59.1870 HW2           1 RES     
    9083 OW          45.0300    12.5510   -73.3830 OW            1 RES     
    9084 HW1         44.9610    12.1800   -72.4580 HW1           1 RES     
    9085 HW2         45.1090    11.7990   -74.0390 HW2           1 RES     
    9086 OW          20.1310    19.1910   -73.2850 OW            1 RES     
    9087 HW1         19.5310    18.6420   -72.7050 HW1           1 RES     
    9088 HW2         20.7080    19.7730   -72.7120 HW2           1 RES     
    9089 OW           1.2890    23.4920   -60.0560 OW            1 RES     
    9090 HW1          1.3570    24.2520   -59.4110 HW1           1 RES     
    9091 HW2          2.1900    23.3070   -60.4510 HW2           1 RES     
    9092 OW           9.0180    38.2910   -65.8370 OW            1 RES     
    9093 HW1          9.0390    39.2900   -65.8590 HW1           1 RES     
    9094 HW2          9.9530    37.9370   -65.8270 HW2           1 RES     
    9095 OW          35.0010    14.8160   -71.9330 OW            1 RES     
    9096 HW1         34.5610    13.9670   -72.2220 HW1           1 RES     
    9097 HW2         35.9290    14.6210   -71.6150 HW2           1 RES     
    9098 OW          22.2000     8.6250   -69.5710 OW            1 RES     
    9099 HW1         23.0030     9.0590   -69.1650 HW1           1 RES     
    9100 HW2         22.2430     7.6370   -69.4210 HW2           1 RES     
    9101 OW          17.8060    25.8380   -70.5830 OW            1 RES     
    9102 HW1         18.7960    25.7160   -70.6500 HW1           1 RES     
    9103 HW2         17.5840    26.8110   -70.6490 HW2           1 RES     
    9104 OW          -5.4850    18.4330   -63.8150 OW            1 RES     
    9105 HW1         -5.3280    19.3440   -63.4360 HW1           1 RES     
    9106 HW2         -4.7330    17.8280   -63.5520 HW2           1 RES     
    9107 OW          22.3580    38.1370   -66.4840 OW            1 RES     
    9108 HW1         21.4390    38.0070   -66.1140 HW1           1 RES     
    9109 HW2         22.8800    37.2890   -66.3870 HW2           1 RES     
    9110 OW          36.0410    13.8240   -66.3900 OW            1 RES     
    9111 HW1         36.3300    13.6730   -67.3350 HW1           1 RES     
    9112 HW2         36.4660    13.1390   -65.7970 HW2           1 RES     
    9113 OW          26.3730     3.7280   -61.4260 OW            1 RES     
    9114 HW1         25.5810     4.2520   -61.7360 HW1           1 RES     
    9115 HW2         26.7420     4.1420   -60.5930 HW2           1 RES     
    9116 OW          -5.6170    42.1630   -68.5090 OW            1 RES     
    9117 HW1         -5.6290    41.3720   -67.8980 HW1           1 RES     
    9118 HW2         -6.3570    42.7880   -68.2600 HW2           1 RES     
    9119 OW          30.9700    21.3870   -60.2770 OW            1 RES     
    9120 HW1         31.9390    21.5610   -60.4480 HW1           1 RES     
    9121 HW2         30.5090    22.2480   -60.0600 HW2           1 RES     
    9122 OW          22.9590    -3.7860   -63.6160 OW            1 RES     
    9123 HW1         22.0610    -3.4430   -63.3420 HW1           1 RES     
    9124 HW2         22.8720    -4.3160   -64.4590 HW2           1 RES     
    9125 OW          22.0670     9.7140   -61.7320 OW            1 RES     
    9126 HW1         22.6810     9.3320   -62.4210 HW1           1 RES     
    9127 HW2         21.1670     9.8760   -62.1380 HW2           1 RES     
    9128 OW          16.0970     9.3770   -58.5560 OW            1 RES     
    9129 HW1         16.9970     8.9440   -58.5510 HW1           1 RES     
    9130 HW2         16.2040    10.3720   -58.5550 HW2           1 RES     
    9131 OW          14.2350    39.0570   -66.4490 OW            1 RES     
    9132 HW1         15.1120    39.5050   -66.6180 HW1           1 RES     
    9133 HW2         13.5000    39.7340   -66.4930 HW2           1 RES     
    9134 OW           1.6680    -2.2930   -66.6360 OW            1 RES     
    9135 HW1          2.1700    -3.1290   -66.8540 HW1           1 RES     
    9136 HW2          0.6850    -2.4700   -66.6890 HW2           1 RES     
    9137 OW          14.3280    35.2690   -64.3680 OW            1 RES     
    9138 HW1         13.3680    35.2500   -64.6440 HW1           1 RES     
    9139 HW2         14.7350    34.3670   -64.5120 HW2           1 RES     
    9140 OW          37.2810    25.9490   -65.7150 OW            1 RES     
    9141 HW1         37.3880    25.0560   -65.2790 HW1           1 RES     
    9142 HW2         36.6240    26.4960   -65.1960 HW2           1 RES     
    9143 OW           7.1970    31.9680   -66.0870 OW            1 RES     
    9144 HW1          6.7430    32.8540   -65.9970 HW1           1 RES     
    9145 HW2          6.8670    31.5060   -66.9100 HW2           1 RES     
    9146 OW          38.8520    33.7320   -68.4150 OW            1 RES     
    9147 HW1         38.9220    34.7070   -68.6210 HW1           1 RES     
    9148 HW2         38.0350    33.5640   -67.8640 HW2           1 RES     
    9149 OW          -2.1100    -3.3050   -70.0530 OW            1 RES     
    9150 HW1         -2.8140    -2.7110   -70.4400 HW1           1 RES     
    9151 HW2         -1.4380    -2.7510   -69.5620 HW2           1 RES     
    9152 OW           0.1150    37.7480   -63.9390 OW            1 RES     
    9153 HW1          0.4090    37.6610   -64.8900 HW1           1 RES     
    9154 HW2          0.4980    38.5840   -63.5450 HW2           1 RES     
    9155 OW          18.0950    40.7160   -62.0340 OW            1 RES     
    9156 HW1         18.4580    39.8020   -61.8550 HW1           1 RES     
    9157 HW2         17.1700    40.7860   -61.6600 HW2           1 RES     
    9158 OW           6.9560    29.6120   -62.3840 OW            1 RES     
    9159 HW1          6.7080    30.5800   -62.3740 HW1           1 RES     
    9160 HW2          7.8450    29.4990   -62.8280 HW2           1 RES     
    9161 OW          25.5250    39.1690   -73.2760 OW            1 RES     
    9162 HW1         26.5170    39.1540   -73.3960 HW1           1 RES     
    9163 HW2         25.0890    38.6880   -74.0370 HW2           1 RES     
    9164 OW           7.6550    27.8760   -70.2690 OW            1 RES     
    9165 HW1          7.7040    27.1020   -69.6380 HW1           1 RES     
    9166 HW2          8.4860    28.4260   -70.1870 HW2           1 RES     
    9167 OW          22.0460    27.9070   -66.2850 OW            1 RES     
    9168 HW1         21.5810    27.0250   -66.3520 HW1           1 RES     
    9169 HW2         23.0350    27.7610   -66.2460 HW2           1 RES     
    9170 OW           3.9810    28.5340   -61.2680 OW            1 RES     
    9171 HW1          4.8810    28.8440   -61.5740 HW1           1 RES     
    9172 HW2          3.2730    28.9550   -61.8350 HW2           1 RES     
    9173 OW          22.1220     4.8760   -73.3210 OW            1 RES     
    9174 HW1         22.8460     4.3450   -73.7590 HW1           1 RES     
    9175 HW2         22.5260     5.5280   -72.6800 HW2           1 RES     
    9176 OW          30.3090    21.1910   -72.3690 OW            1 RES     
    9177 HW1         31.2170    20.7740   -72.3630 HW1           1 RES     
    9178 HW2         30.3990    22.1870   -72.3830 HW2           1 RES     
    9179 OW          31.3980    24.9220   -70.7470 OW            1 RES     
    9180 HW1         30.8750    25.7640   -70.6230 HW1           1 RES     
    9181 HW2         30.7840    24.1350   -70.6800 HW2           1 RES     
    9182 OW          29.2260    12.0250   -70.4200 OW            1 RES     
    9183 HW1         29.1850    12.9270   -69.9910 HW1           1 RES     
    9184 HW2         30.1800    11.7390   -70.5050 HW2           1 RES     
    9185 OW           8.0910     7.8120   -61.8340 OW            1 RES     
    9186 HW1          8.8910     8.0870   -61.3010 HW1           1 RES     
    9187 HW2          7.4150     7.3930   -61.2280 HW2           1 RES     
    9188 OW           7.4830    38.6110   -67.3810 OW            1 RES     
    9189 HW1          6.9340    39.4340   -67.5260 HW1           1 RES     
    9190 HW2          6.9330    37.9210   -66.9100 HW2           1 RES     
    9191 OW          12.5080    42.3410   -67.6220 OW            1 RES     
    9192 HW1         12.7240    43.3140   -67.6930 HW1           1 RES     
    9193 HW2         11.7940    42.1070   -68.2810 HW2           1 RES     
    9194 OW          16.8870    -0.0760   -69.7610 OW            1 RES     
    9195 HW1         17.5380     0.3450   -69.1290 HW1           1 RES     
    9196 HW2         17.2340    -0.0000   -70.6960 HW2           1 RES     
    9197 OW          27.2880     7.3490   -63.9910 OW            1 RES     
    9198 HW1         26.8080     8.2070   -64.1680 HW1           1 RES     
    9199 HW2         28.2730     7.5190   -63.9520 HW2           1 RES     
    9200 OW          16.5360    33.7030   -69.5080 OW            1 RES     
    9201 HW1         16.1510    33.0280   -70.1360 HW1           1 RES     
    9202 HW2         15.8020    34.1090   -68.9630 HW2           1 RES     
    9203 OW           8.4060     0.8950   -65.8120 OW            1 RES     
    9204 HW1          8.4920     0.7950   -66.8030 HW1           1 RES     
    9205 HW2          9.2610     0.6170   -65.3740 HW2           1 RES     
    9206 OW          20.7080    16.7050   -58.9220 OW            1 RES     
    9207 HW1         21.6160    16.5120   -58.5510 HW1           1 RES     
    9208 HW2         20.4660    17.6570   -58.7370 HW2           1 RES     
    9209 OW          24.9480    29.8070   -68.6090 OW            1 RES     
    9210 HW1         25.1980    30.7610   -68.4510 HW1           1 RES     
    9211 HW2         25.7560    29.2280   -68.5000 HW2           1 RES     
    9212 OW          -6.4200    34.0950   -60.2220 OW            1 RES     
    9213 HW1         -5.6440    34.4610   -59.7100 HW1           1 RES     
    9214 HW2         -6.1140    33.3300   -60.7900 HW2           1 RES     
    9215 OW          32.9840    10.6160   -71.0480 OW            1 RES     
    9216 HW1         33.8680    10.7320   -70.5970 HW1           1 RES     
    9217 HW2         33.1140    10.6040   -72.0400 HW2           1 RES     
    9218 OW          16.5110    25.8540   -68.7010 OW            1 RES     
    9219 HW1         15.9210    25.8440   -67.8940 HW1           1 RES     
    9220 HW2         17.3800    26.2920   -68.4730 HW2           1 RES     
    9221 OW          28.1960    40.2240   -66.4350 OW            1 RES     
    9222 HW1         28.3530    39.7460   -67.2980 HW1           1 RES     
    9223 HW2         28.8750    39.9310   -65.7620 HW2           1 RES     
    9224 OW           1.1220    -3.3350   -58.6130 OW            1 RES     
    9225 HW1          1.4200    -4.2860   -58.6810 HW1           1 RES     
    9226 HW2          1.9220    -2.7380   -58.5510 HW2           1 RES     
    9227 OW          41.6140    -0.1200   -65.0070 OW            1 RES     
    9228 HW1         41.6690    -1.1060   -65.1590 HW1           1 RES     
    9229 HW2         40.9040     0.2700   -65.5950 HW2           1 RES     
    9230 OW          33.9490     0.4090   -68.7020 OW            1 RES     
    9231 HW1         34.0600     1.2450   -69.2380 HW1           1 RES     
    9232 HW2         33.3740    -0.2370   -69.2040 HW2           1 RES     
    9233 OW          27.0930    34.2170   -60.0890 OW            1 RES     
    9234 HW1         26.1530    33.9570   -59.8710 HW1           1 RES     
    9235 HW2         27.3740    33.7710   -60.9390 HW2           1 RES     
    9236 OW          32.9820    15.2920   -63.8560 OW            1 RES     
    9237 HW1         33.7500    15.0370   -64.4420 HW1           1 RES     
    9238 HW2         32.1360    14.9100   -64.2280 HW2           1 RES     
    9239 OW          -2.6660    18.4630   -63.9560 OW            1 RES     
    9240 HW1         -2.3610    18.5520   -63.0080 HW1           1 RES     
    9241 HW2         -3.0710    19.3260   -64.2590 HW2           1 RES     
    9242 OW          29.9860    31.0810   -67.4790 OW            1 RES     
    9243 HW1         30.8860    31.3030   -67.1070 HW1           1 RES     
    9244 HW2         30.0460    31.0020   -68.4740 HW2           1 RES     
    9245 OW          40.8530    28.8230   -70.2950 OW            1 RES     
    9246 HW1         40.7490    28.2520   -69.4810 HW1           1 RES     
    9247 HW2         41.8140    29.0780   -70.4040 HW2           1 RES     
    9248 OW          -1.5560     9.2890   -67.6640 OW            1 RES     
    9249 HW1         -1.4680     8.5860   -66.9590 HW1           1 RES     
    9250 HW2         -2.1200     8.9410   -68.4130 HW2           1 RES     
    9251 OW          37.1270    -2.5320   -61.2290 OW            1 RES     
    9252 HW1         36.5050    -3.1620   -61.6920 HW1           1 RES     
    9253 HW2         37.2010    -1.6860   -61.7580 HW2           1 RES     
    9254 OW           8.3630    31.2100   -73.9160 OW            1 RES     
    9255 HW1          7.9120    32.0940   -74.0390 HW1           1 RES     
    9256 HW2          7.7760    30.6070   -73.3760 HW2           1 RES     
    9257 OW          38.3680    41.0700   -60.4220 OW            1 RES     
    9258 HW1         37.8930    41.6960   -59.8040 HW1           1 RES     
    9259 HW2         38.7680    41.5870   -61.1790 HW2           1 RES     
    9260 OW           7.8660     2.9870   -64.4870 OW            1 RES     
    9261 HW1          8.7040     2.4740   -64.3040 HW1           1 RES     
    9262 HW2          7.8640     3.2940   -65.4380 HW2           1 RES     
    9263 OW          23.1740    17.6790   -59.8250 OW            1 RES     
    9264 HW1         23.8680    18.1080   -59.2480 HW1           1 RES     
    9265 HW2         23.4100    16.7180   -59.9720 HW2           1 RES     
    9266 OW          37.3970    -3.2390   -64.1740 OW            1 RES     
    9267 HW1         36.8860    -3.6760   -64.9130 HW1           1 RES     
    9268 HW2         37.2250    -2.2540   -64.1870 HW2           1 RES     
    9269 OW          39.0500    -2.1230   -59.5040 OW            1 RES     
    9270 HW1         39.2010    -1.3430   -60.1090 HW1           1 RES     
    9271 HW2         39.5830    -2.0050   -58.6660 HW2           1 RES     
    9272 OW           6.0030     4.2310   -60.9290 OW            1 RES     
    9273 HW1          6.3490     3.3880   -61.3390 HW1           1 RES     
    9274 HW2          5.0190     4.3030   -61.0940 HW2           1 RES     
    9275 OW          30.2610    15.7450   -63.1900 OW            1 RES     
    9276 HW1         29.6340    15.8620   -62.4210 HW1           1 RES     
    9277 HW2         29.7420    15.5160   -64.0140 HW2           1 RES     
    9278 OW          -1.3160    18.2920   -68.5240 OW            1 RES     
    9279 HW1         -1.1160    18.8470   -67.7170 HW1           1 RES     
    9280 HW2         -2.2100    17.8550   -68.4160 HW2           1 RES     
    9281 OW          -5.7100    30.3520   -69.2300 OW            1 RES     
    9282 HW1         -6.6810    30.5870   -69.1980 HW1           1 RES     
    9283 HW2         -5.6070    29.3570   -69.1930 HW2           1 RES     
    9284 OW          16.3640    37.9780   -60.6090 OW            1 RES     
    9285 HW1         15.3700    38.0850   -60.6080 HW1           1 RES     
    9286 HW2         16.7970    38.8790   -60.6280 HW2           1 RES     
    9287 OW          -2.1550    17.1170   -70.6040 OW            1 RES     
    9288 HW1         -2.4520    16.6790   -71.4520 HW1           1 RES     
    9289 HW2         -1.1560    17.1120   -70.5580 HW2           1 RES     
    9290 OW          40.5450     4.4660   -66.4760 OW            1 RES     
    9291 HW1         39.8380     4.7560   -67.1200 HW1           1 RES     
    9292 HW2         41.2800     5.1440   -66.4600 HW2           1 RES     
    9293 OW          37.3550    12.7950   -73.1740 OW            1 RES     
    9294 HW1         37.8520    11.9750   -73.4570 HW1           1 RES     
    9295 HW2         37.3730    12.8690   -72.1770 HW2           1 RES     
    9296 OW          43.0360    27.7000   -72.4800 OW            1 RES     
    9297 HW1         43.1250    28.6840   -72.6260 HW1           1 RES     
    9298 HW2         42.2450    27.5190   -71.8950 HW2           1 RES     
    9299 OW           5.7510     8.2000   -70.4080 OW            1 RES     
    9300 HW1          6.7110     8.0790   -70.6570 HW1           1 RES     
    9301 HW2          5.2420     7.3670   -70.6280 HW2           1 RES     
    9302 OW           0.1080    18.9350   -70.6670 OW            1 RES     
    9303 HW1          0.7570    19.6920   -70.6060 HW1           1 RES     
    9304 HW2         -0.8260    19.2880   -70.5980 HW2           1 RES     
    9305 OW          30.9110    34.1660   -66.5600 OW            1 RES     
    9306 HW1         31.6990    33.5520   -66.5560 HW1           1 RES     
    9307 HW2         31.1590    35.0250   -67.0080 HW2           1 RES     
    9308 OW          16.0860    29.4900   -71.8330 OW            1 RES     
    9309 HW1         16.6640    28.6760   -71.8710 HW1           1 RES     
    9310 HW2         16.6340    30.2990   -72.0470 HW2           1 RES     
    9311 OW          31.8350    -0.5870   -71.6430 OW            1 RES     
    9312 HW1         32.5310     0.1290   -71.6800 HW1           1 RES     
    9313 HW2         32.2780    -1.4830   -71.6190 HW2           1 RES     
    9314 OW          39.9580    40.0490   -59.2850 OW            1 RES     
    9315 HW1         40.1480    39.4230   -60.0410 HW1           1 RES     
    9316 HW2         40.6200    39.8960   -58.5510 HW2           1 RES     
    9317 OW          21.0450    39.2040   -71.8360 OW            1 RES     
    9318 HW1         21.9040    38.6940   -71.8000 HW1           1 RES     
    9319 HW2         20.2770    38.5640   -71.8700 HW2           1 RES     
    9320 OW          20.2530     1.8820   -70.4210 OW            1 RES     
    9321 HW1         20.6530     2.7960   -70.4760 HW1           1 RES     
    9322 HW2         20.5310     1.3470   -71.2190 HW2           1 RES     
    9323 OW          41.9340    15.0520   -69.3300 OW            1 RES     
    9324 HW1         41.0760    15.4980   -69.5790 HW1           1 RES     
    9325 HW2         42.3060    15.4790   -68.5060 HW2           1 RES     
    9326 OW          -2.5550    15.5670   -69.0930 OW            1 RES     
    9327 HW1         -1.9590    15.5510   -68.2910 HW1           1 RES     
    9328 HW2         -2.9230    14.6500   -69.2530 HW2           1 RES     
    9329 OW          -6.7730    22.1340   -65.5530 OW            1 RES     
    9330 HW1         -6.3670    22.1990   -64.6420 HW1           1 RES     
    9331 HW2         -6.0480    22.0430   -66.2350 HW2           1 RES     
    9332 OW          17.4960     6.0720   -58.8780 OW            1 RES     
    9333 HW1         17.6220     5.1360   -58.5510 HW1           1 RES     
    9334 HW2         18.3700     6.4320   -59.2040 HW2           1 RES     
    9335 OW          23.8640    -0.8350   -64.0980 OW            1 RES     
    9336 HW1         24.4350    -0.3860   -63.4120 HW1           1 RES     
    9337 HW2         24.4330    -1.1270   -64.8670 HW2           1 RES     
    9338 OW          22.8480    12.1200   -63.4830 OW            1 RES     
    9339 HW1         22.3300    11.6280   -62.7850 HW1           1 RES     
    9340 HW2         23.6370    11.5710   -63.7620 HW2           1 RES     
    9341 OW          13.7540     2.3680   -66.5990 OW            1 RES     
    9342 HW1         13.3400     1.7060   -65.9750 HW1           1 RES     
    9343 HW2         14.5950     2.7270   -66.1950 HW2           1 RES     
    9344 OW          -2.8280    37.5510   -73.6090 OW            1 RES     
    9345 HW1         -3.7510    37.5570   -73.9920 HW1           1 RES     
    9346 HW2         -2.5740    38.4790   -73.3360 HW2           1 RES     
    9347 OW          -1.8080    33.2370   -73.1950 OW            1 RES     
    9348 HW1         -2.7660    33.3990   -73.4290 HW1           1 RES     
    9349 HW2         -1.7170    32.3410   -72.7610 HW2           1 RES     
    9350 OW          12.2220    18.9140   -65.2170 OW            1 RES     
    9351 HW1         11.6130    18.5030   -64.5390 HW1           1 RES     
    9352 HW2         12.6730    19.7140   -64.8180 HW2           1 RES     
    9353 OW          16.1750    11.4510   -71.4900 OW            1 RES     
    9354 HW1         16.3530    10.6390   -70.9370 HW1           1 RES     
    9355 HW2         15.4150    11.9660   -71.0920 HW2           1 RES     
    9356 OW           4.6490    27.3410   -70.5680 OW            1 RES     
    9357 HW1          4.0250    27.7200   -69.8850 HW1           1 RES     
    9358 HW2          5.4340    26.9260   -70.1090 HW2           1 RES     
    9359 OW          23.4960    16.3300   -63.4690 OW            1 RES     
    9360 HW1         22.8300    15.5950   -63.3470 HW1           1 RES     
    9361 HW2         23.1700    17.1560   -63.0080 HW2           1 RES     
    9362 OW          13.8780    -1.1080   -64.9270 OW            1 RES     
    9363 HW1         13.8190    -2.0990   -65.0400 HW1           1 RES     
    9364 HW2         14.7910    -0.7950   -65.1910 HW2           1 RES     
    9365 OW          20.7610     3.5280   -61.2250 OW            1 RES     
    9366 HW1         21.4960     3.1100   -60.6920 HW1           1 RES     
    9367 HW2         20.1740     2.8120   -61.6030 HW2           1 RES     
    9368 OW          44.7260    16.2860   -66.8440 OW            1 RES     
    9369 HW1         44.1400    16.4440   -67.6380 HW1           1 RES     
    9370 HW2         44.8300    15.3020   -66.6950 HW2           1 RES     
    9371 OW          40.4860    34.0720   -66.6360 OW            1 RES     
    9372 HW1         39.5310    34.2080   -66.3740 HW1           1 RES     
    9373 HW2         40.5860    33.1840   -67.0850 HW2           1 RES     
    9374 OW          18.0770    12.0040   -67.2360 OW            1 RES     
    9375 HW1         18.9290    12.2090   -66.7560 HW1           1 RES     
    9376 HW2         17.6590    11.1870   -66.8390 HW2           1 RES     
    9377 OW          30.1880    32.5050   -65.0970 OW            1 RES     
    9378 HW1         29.3690    32.4660   -64.5250 HW1           1 RES     
    9379 HW2         30.7410    31.6850   -64.9450 HW2           1 RES     
    9380 OW          38.8830    20.4860   -68.7890 OW            1 RES     
    9381 HW1         39.7830    20.4210   -68.3600 HW1           1 RES     
    9382 HW2         38.2870    21.0610   -68.2270 HW2           1 RES     
    9383 OW          -2.9310    25.6660   -64.2750 OW            1 RES     
    9384 HW1         -3.7510    25.3750   -63.7840 HW1           1 RES     
    9385 HW2         -2.7090    26.6090   -64.0240 HW2           1 RES     
    9386 OW          17.9200    18.8850   -67.4340 OW            1 RES     
    9387 HW1         18.3400    19.4650   -66.7370 HW1           1 RES     
    9388 HW2         17.5640    18.0540   -67.0070 HW2           1 RES     
    9389 OW           5.5230    41.4420   -60.6550 OW            1 RES     
    9390 HW1          5.6610    42.0340   -59.8610 HW1           1 RES     
    9391 HW2          4.5850    41.0950   -60.6530 HW2           1 RES     
    9392 OW          29.3330    -2.4990   -73.6820 OW            1 RES     
    9393 HW1         28.9050    -1.6250   -73.4510 HW1           1 RES     
    9394 HW2         30.3200    -2.3720   -73.7800 HW2           1 RES     
    9395 OW          15.2910     2.4360   -63.4140 OW            1 RES     
    9396 HW1         16.1920     2.0400   -63.5900 HW1           1 RES     
    9397 HW2         15.0980     3.1430   -64.0940 HW2           1 RES     
    9398 OW          35.3210    26.0010   -68.1660 OW            1 RES     
    9399 HW1         36.2150    25.7550   -68.5380 HW1           1 RES     
    9400 HW2         34.7720    25.1740   -68.0410 HW2           1 RES     
    9401 OW          25.6840    40.5920   -65.2640 OW            1 RES     
    9402 HW1         26.4580    40.5180   -64.6360 HW1           1 RES     
    9403 HW2         25.0720    39.8130   -65.1330 HW2           1 RES     
    9404 OW          24.5000     1.8590   -62.1160 OW            1 RES     
    9405 HW1         24.2550     0.9840   -61.7000 HW1           1 RES     
    9406 HW2         24.3100     1.8270   -63.0980 HW2           1 RES     
    9407 OW          -6.7720    25.6340   -67.6590 OW            1 RES     
    9408 HW1         -5.9210    26.1570   -67.6380 HW1           1 RES     
    9409 HW2         -6.5620    24.6580   -67.7220 HW2           1 RES     
    9410 OW          -4.0970    24.0740   -67.4730 OW            1 RES     
    9411 HW1         -4.0620    23.0820   -67.3520 HW1           1 RES     
    9412 HW2         -3.6450    24.3210   -68.3310 HW2           1 RES     
    9413 OW          17.1900    23.2070   -69.8590 OW            1 RES     
    9414 HW1         18.0920    23.6380   -69.8700 HW1           1 RES     
    9415 HW2         16.4880    23.9060   -69.7230 HW2           1 RES     
    9416 OW          22.8570    21.4950   -74.0390 OW            1 RES     
    9417 HW1         23.4620    21.4570   -73.2440 HW1           1 RES     
    9418 HW2         22.2100    20.7340   -74.0030 HW2           1 RES     
    9419 OW          17.4210     0.1870   -61.2430 OW            1 RES     
    9420 HW1         17.2180    -0.7500   -61.5260 HW1           1 RES     
    9421 HW2         18.2760     0.4850   -61.6670 HW2           1 RES     
    9422 OW          31.7990    -1.3620   -68.1590 OW            1 RES     
    9423 HW1         31.5660    -0.9590   -67.2750 HW1           1 RES     
    9424 HW2         31.1710    -1.0180   -68.8580 HW2           1 RES     
    9425 OW          24.6330    17.7010   -68.3270 OW            1 RES     
    9426 HW1         23.7940    17.7660   -67.7890 HW1           1 RES     
    9427 HW2         24.6300    18.4050   -69.0370 HW2           1 RES     
    9428 OW           8.8160    27.4790   -60.1180 OW            1 RES     
    9429 HW1          8.5820    28.3310   -60.5850 HW1           1 RES     
    9430 HW2          8.3540    27.4460   -59.2310 HW2           1 RES     
    9431 OW          23.6680    26.4100   -68.7350 OW            1 RES     
    9432 HW1         22.6780    26.3420   -68.6190 HW1           1 RES     
    9433 HW2         23.8760    27.0810   -69.4470 HW2           1 RES     
    9434 OW          23.6290    42.6030   -71.3520 OW            1 RES     
    9435 HW1         24.6270    42.5430   -71.3530 HW1           1 RES     
    9436 HW2         23.2400    41.6820   -71.3500 HW2           1 RES     
    9437 OW          37.1660    40.1760   -70.2430 OW            1 RES     
    9438 HW1         38.0880    39.7950   -70.3050 HW1           1 RES     
    9439 HW2         36.8090    40.0370   -69.3200 HW2           1 RES     
    9440 OW          37.3310    10.1040   -72.3620 OW            1 RES     
    9441 HW1         37.9130     9.3950   -71.9640 HW1           1 RES     
    9442 HW2         37.1330     9.8760   -73.3150 HW2           1 RES     
    9443 OW          34.7970    24.7620   -65.8700 OW            1 RES     
    9444 HW1         35.1060    23.8130   -65.9200 HW1           1 RES     
    9445 HW2         33.7970    24.7890   -65.8810 HW2           1 RES     
    9446 OW          32.8840    33.9730   -64.5400 OW            1 RES     
    9447 HW1         33.8390    33.6850   -64.4800 HW1           1 RES     
    9448 HW2         32.2880    33.1730   -64.4660 HW2           1 RES     
    9449 OW          10.9140    28.2040   -64.1490 OW            1 RES     
    9450 HW1         10.3110    27.4570   -63.8740 HW1           1 RES     
    9451 HW2         10.9800    28.2300   -65.1470 HW2           1 RES     
    9452 OW          23.4780    22.4760   -68.2240 OW            1 RES     
    9453 HW1         23.5160    21.5340   -68.5570 HW1           1 RES     
    9454 HW2         24.3830    22.7510   -67.8980 HW2           1 RES     
    9455 OW           2.3390    26.2970   -65.2650 OW            1 RES     
    9456 HW1          3.2420    25.8710   -65.2980 HW1           1 RES     
    9457 HW2          1.6350    25.5860   -65.2380 HW2           1 RES     
    9458 OW          13.3000    26.1060   -67.5170 OW            1 RES     
    9459 HW1         12.8630    25.4070   -66.9520 HW1           1 RES     
    9460 HW2         12.6350    26.4700   -68.1700 HW2           1 RES     
    9461 OW          31.3100    28.7750   -60.1940 OW            1 RES     
    9462 HW1         30.6710    28.2300   -59.6520 HW1           1 RES     
    9463 HW2         31.4640    28.3300   -61.0760 HW2           1 RES     
    9464 OW          -1.0130    31.6200   -61.4560 OW            1 RES     
    9465 HW1         -1.8850    31.2050   -61.1980 HW1           1 RES     
    9466 HW2         -0.6820    31.2030   -62.3030 HW2           1 RES     
    9467 OW          18.2060    26.5190   -63.4930 OW            1 RES     
    9468 HW1         19.1820    26.5120   -63.7100 HW1           1 RES     
    9469 HW2         17.9810    27.3590   -62.9970 HW2           1 RES     
    9470 OW          15.2360    25.3440   -65.0050 OW            1 RES     
    9471 HW1         15.4670    26.3140   -64.9350 HW1           1 RES     
    9472 HW2         14.2710    25.2470   -65.2490 HW2           1 RES     
    9473 OW          13.6170    41.4840   -64.0050 OW            1 RES     
    9474 HW1         13.8650    41.2570   -64.9460 HW1           1 RES     
    9475 HW2         12.6240    41.4320   -63.8990 HW2           1 RES     
    9476 OW          -0.8290    25.4590   -62.3590 OW            1 RES     
    9477 HW1         -1.4300    26.1780   -62.0110 HW1           1 RES     
    9478 HW2         -1.3430    24.8660   -62.9790 HW2           1 RES     
    9479 OW          43.7890    20.4090   -59.1590 OW            1 RES     
    9480 HW1         43.6840    21.1960   -58.5520 HW1           1 RES     
    9481 HW2         43.5560    20.6760   -60.0940 HW2           1 RES     
    9482 OW           1.3830    40.3340   -70.3180 OW            1 RES     
    9483 HW1          0.4720    40.0630   -70.6280 HW1           1 RES     
    9484 HW2          2.0220    39.5770   -70.4540 HW2           1 RES     
    9485 OW           6.7640    38.5500   -64.5830 OW            1 RES     
    9486 HW1          7.4370    37.8440   -64.3640 HW1           1 RES     
    9487 HW2          6.0580    38.5690   -63.8750 HW2           1 RES     
    9488 OW          35.3480    30.3100   -60.8690 OW            1 RES     
    9489 HW1         34.7320    29.9180   -60.1870 HW1           1 RES     
    9490 HW2         35.8840    29.5800   -61.2950 HW2           1 RES     
    9491 OW          20.6800    22.2080   -63.1560 OW            1 RES     
    9492 HW1         19.7980    21.7620   -63.3030 HW1           1 RES     
    9493 HW2         20.5520    23.2000   -63.1300 HW2           1 RES     
    9494 OW          31.2620    12.5820   -65.0960 OW            1 RES     
    9495 HW1         31.1290    12.8820   -66.0400 HW1           1 RES     
    9496 HW2         31.4350    11.5970   -65.0790 HW2           1 RES     
    9497 OW          29.9280    12.5880   -73.1410 OW            1 RES     
    9498 HW1         29.2430    13.3070   -73.2530 HW1           1 RES     
    9499 HW2         30.2670    12.3070   -74.0390 HW2           1 RES     
    9500 OW          28.5060    43.2470   -61.7660 OW            1 RES     
    9501 HW1         27.9520    42.5090   -62.1500 HW1           1 RES     
    9502 HW2         29.2860    42.8580   -61.2740 HW2           1 RES     
    9503 OW          21.8290    12.6750   -66.2220 OW            1 RES     
    9504 HW1         22.4440    12.1300   -65.6530 HW1           1 RES     
    9505 HW2         21.8170    13.6190   -65.8910 HW2           1 RES     
    9506 OW           3.6700    19.4390   -64.4650 OW            1 RES     
    9507 HW1          3.5270    19.3180   -65.4460 HW1           1 RES     
    9508 HW2          2.9450    20.0180   -64.0900 HW2           1 RES     
    9509 OW           6.8480    20.0460   -73.9740 OW            1 RES     
    9510 HW1          6.3960    20.7150   -73.3840 HW1           1 RES     
    9511 HW2          6.2840    19.2230   -74.0390 HW2           1 RES     
    9512 OW          27.3820    36.6740   -73.0970 OW            1 RES     
    9513 HW1         27.8560    36.9480   -73.9330 HW1           1 RES     
    9514 HW2         26.4270    36.9680   -73.1430 HW2           1 RES     
    9515 OW          38.6850    36.9380   -59.1250 OW            1 RES     
    9516 HW1         39.2010    36.2580   -58.6040 HW1           1 RES     
    9517 HW2         38.5150    37.7390   -58.5510 HW2           1 RES     
    9518 OW          29.8530    35.3850   -60.1330 OW            1 RES     
    9519 HW1         29.6590    34.4060   -60.1840 HW1           1 RES     
    9520 HW2         30.8070    35.5230   -59.8660 HW2           1 RES     
    9521 OW          -6.1390     6.2160   -67.5080 OW            1 RES     
    9522 HW1         -5.4120     6.1730   -66.8230 HW1           1 RES     
    9523 HW2         -6.2820     5.3070   -67.9010 HW2           1 RES     
    9524 OW          30.0990     7.3700   -62.5330 OW            1 RES     
    9525 HW1         29.7280     7.0900   -61.6490 HW1           1 RES     
    9526 HW2         31.0480     7.0650   -62.6090 HW2           1 RES     
    9527 OW          -6.7730     7.8580   -63.4730 OW            1 RES     
    9528 HW1         -6.6620     8.5190   -64.2140 HW1           1 RES     
    9529 HW2         -6.2670     8.1700   -62.6680 HW2           1 RES     
    9530 OW          15.5230    36.6490   -58.9490 OW            1 RES     
    9531 HW1         14.9750    35.9120   -58.5530 HW1           1 RES     
    9532 HW2         16.4420    36.6310   -58.5540 HW2           1 RES     
    9533 OW          39.0500    27.8200   -73.9320 OW            1 RES     
    9534 HW1         40.0170    27.5780   -74.0140 HW1           1 RES     
    9535 HW2         38.9430    28.8080   -74.0390 HW2           1 RES     
    9536 OW          -5.8030     3.3510   -65.9060 OW            1 RES     
    9537 HW1         -5.2500     4.1840   -65.8970 HW1           1 RES     
    9538 HW2         -6.7730     3.5940   -65.8980 HW2           1 RES     
    9539 OW          24.5250    12.3370   -71.5030 OW            1 RES     
    9540 HW1         23.7230    11.8270   -71.1940 HW1           1 RES     
    9541 HW2         25.3530    11.8150   -71.2970 HW2           1 RES     
    9542 OW          32.1870    12.7270   -70.6530 OW            1 RES     
    9543 HW1         32.8230    12.8930   -71.4060 HW1           1 RES     
    9544 HW2         32.6960    12.4340   -69.8440 HW2           1 RES     
    9545 OW           1.5300     0.7440   -65.2090 OW            1 RES     
    9546 HW1          1.9600     1.2280   -64.4480 HW1           1 RES     
    9547 HW2          2.2130     0.1830   -65.6770 HW2           1 RES     
    9548 OW          26.1240    16.4450   -65.7890 OW            1 RES     
    9549 HW1         25.1270    16.5060   -65.8280 HW1           1 RES     
    9550 HW2         26.4340    15.6810   -66.3560 HW2           1 RES     
    9551 OW           4.9820    29.7880   -66.1090 OW            1 RES     
    9552 HW1          5.0480    30.7560   -65.8700 HW1           1 RES     
    9553 HW2          5.8910    29.4360   -66.3330 HW2           1 RES     
    9554 OW          -5.9940    34.9510   -70.2130 OW            1 RES     
    9555 HW1         -6.7730    35.3890   -70.6600 HW1           1 RES     
    9556 HW2         -6.0060    35.1650   -69.2360 HW2           1 RES     
    9557 OW           6.5660    11.0240   -73.9840 OW            1 RES     
    9558 HW1          7.4080    11.5600   -74.0390 HW1           1 RES     
    9559 HW2          5.7830    11.6400   -73.8960 HW2           1 RES     
    9560 OW          -3.0860     9.5630   -72.0660 OW            1 RES     
    9561 HW1         -3.1940     9.6030   -73.0580 HW1           1 RES     
    9562 HW2         -3.5640    10.3350   -71.6460 HW2           1 RES     
    9563 OW          36.6650     1.5410   -72.2110 OW            1 RES     
    9564 HW1         35.9990     0.8560   -71.9180 HW1           1 RES     
    9565 HW2         37.5880     1.2310   -71.9790 HW2           1 RES     
    9566 OW          23.1700     1.9430   -65.3620 OW            1 RES     
    9567 HW1         23.0530     1.0350   -64.9620 HW1           1 RES     
    9568 HW2         24.1440     2.1650   -65.4070 HW2           1 RES     
    9569 OW          35.8600    24.2660   -70.3520 OW            1 RES     
    9570 HW1         36.8120    24.2410   -70.0460 HW1           1 RES     
    9571 HW2         35.2820    23.8010   -69.6830 HW2           1 RES     
    9572 OW          -6.2640     1.7970   -64.2310 OW            1 RES     
    9573 HW1         -5.4130     1.2750   -64.2870 HW1           1 RES     
    9574 HW2         -6.7720     1.5200   -63.4160 HW2           1 RES     
    9575 OW          16.0030    22.8700   -65.9900 OW            1 RES     
    9576 HW1         16.4330    23.7560   -66.1600 HW1           1 RES     
    9577 HW2         15.3000    22.9690   -65.2860 HW2           1 RES     
    9578 OW          41.8240     4.9660   -70.9560 OW            1 RES     
    9579 HW1         41.7780     5.8430   -70.4780 HW1           1 RES     
    9580 HW2         42.7750     4.7600   -71.1850 HW2           1 RES     
    9581 OW          14.2940     4.9500   -66.3930 OW            1 RES     
    9582 HW1         13.6590     5.4770   -65.8300 HW1           1 RES     
    9583 HW2         14.9520     5.5690   -66.8230 HW2           1 RES     
    9584 OW          35.4310    18.6830   -60.7800 OW            1 RES     
    9585 HW1         36.3000    19.1730   -60.8410 HW1           1 RES     
    9586 HW2         34.6760    19.3380   -60.8140 HW2           1 RES     
    9587 OW          31.1830     0.8990   -59.9530 OW            1 RES     
    9588 HW1         31.8940     0.5110   -59.3670 HW1           1 RES     
    9589 HW2         31.4460     0.7940   -60.9120 HW2           1 RES     
    9590 OW          42.5910    35.7850   -64.4100 OW            1 RES     
    9591 HW1         42.0180    36.4930   -64.8190 HW1           1 RES     
    9592 HW2         43.5340    36.1130   -64.3480 HW2           1 RES     
    9593 OW           2.5890    30.8900   -73.0970 OW            1 RES     
    9594 HW1          2.8460    31.1050   -74.0390 HW1           1 RES     
    9595 HW2          1.7360    30.3670   -73.0950 HW2           1 RES     
    9596 OW          26.8870     6.5780   -73.9760 OW            1 RES     
    9597 HW1         26.5390     6.5690   -73.0400 HW1           1 RES     
    9598 HW2         27.6590     7.2120   -74.0390 HW2           1 RES     
    9599 OW          23.1730    34.8640   -60.4250 OW            1 RES     
    9600 HW1         23.1400    35.8000   -60.0780 HW1           1 RES     
    9601 HW2         22.2570    34.5790   -60.7060 HW2           1 RES     
    9602 OW          34.5970    24.0440   -63.3550 OW            1 RES     
    9603 HW1         33.9700    23.6340   -64.0170 HW1           1 RES     
    9604 HW2         34.0990    24.6970   -62.7840 HW2           1 RES     
    9605 OW          35.5220    15.2720   -74.0320 OW            1 RES     
    9606 HW1         35.8890    14.3420   -74.0260 HW1           1 RES     
    9607 HW2         34.5220    15.2350   -74.0390 HW2           1 RES     
    9608 OW          39.9200    22.5640   -69.7250 OW            1 RES     
    9609 HW1         40.9050    22.3990   -69.7060 HW1           1 RES     
    9610 HW2         39.7460    23.5490   -69.7010 HW2           1 RES     
    9611 OW          31.9270    32.1240   -58.7770 OW            1 RES     
    9612 HW1         32.0650    33.0600   -59.1000 HW1           1 RES     
    9613 HW2         32.8000    31.6370   -58.7820 HW2           1 RES     
    9614 OW          44.0310    41.0560   -63.9040 OW            1 RES     
    9615 HW1         43.0550    41.0930   -64.1130 HW1           1 RES     
    9616 HW2         44.4310    41.9670   -64.0130 HW2           1 RES     
    9617 OW          39.2750    25.9330   -72.7550 OW            1 RES     
    9618 HW1         40.2200    25.6520   -72.9190 HW1           1 RES     
    9619 HW2         38.7570    25.1630   -72.3830 HW2           1 RES     
    9620 OW          20.6010    20.7520   -68.2240 OW            1 RES     
    9621 HW1         20.2920    20.1250   -67.5090 HW1           1 RES     
    9622 HW2         21.3650    21.2990   -67.8810 HW2           1 RES     
    9623 OW          -3.3280     0.5030   -65.1050 OW            1 RES     
    9624 HW1         -4.0900    -0.0150   -65.4930 HW1           1 RES     
    9625 HW2         -3.3710     0.4630   -64.1070 HW2           1 RES     
    9626 OW           9.2540    14.0220   -72.9770 OW            1 RES     
    9627 HW1          9.3640    13.0350   -73.0920 HW1           1 RES     
    9628 HW2          9.9420    14.3610   -72.3350 HW2           1 RES     
    9629 OW           0.5150    22.2800   -71.0040 OW            1 RES     
    9630 HW1         -0.2920    22.1350   -70.4330 HW1           1 RES     
    9631 HW2          0.5370    21.5930   -71.7320 HW2           1 RES     
    9632 OW          21.4480    29.3020   -70.8540 OW            1 RES     
    9633 HW1         22.1700    29.9160   -70.5370 HW1           1 RES     
    9634 HW2         20.5900    29.5290   -70.3920 HW2           1 RES     
    9635 OW          42.1540     8.2010   -61.1970 OW            1 RES     
    9636 HW1         42.8050     7.4640   -61.0210 HW1           1 RES     
    9637 HW2         41.3150     8.0370   -60.6780 HW2           1 RES     
    9638 OW          25.8760    17.5120   -71.5750 OW            1 RES     
    9639 HW1         26.0540    18.4800   -71.7450 HW1           1 RES     
    9640 HW2         26.6800    16.9740   -71.8310 HW2           1 RES     
    9641 OW          14.9770    -3.8260   -62.3600 OW            1 RES     
    9642 HW1         13.9930    -3.7160   -62.2190 HW1           1 RES     
    9643 HW2         15.4060    -2.9260   -62.4320 HW2           1 RES     
    9644 OW          32.5370    22.1240   -63.3030 OW            1 RES     
    9645 HW1         32.5130    22.0070   -64.2950 HW1           1 RES     
    9646 HW2         32.0760    22.9770   -63.0560 HW2           1 RES     
    9647 OW          36.4170    24.8090   -73.6510 OW            1 RES     
    9648 HW1         36.1870    24.2680   -72.8430 HW1           1 RES     
    9649 HW2         35.5820    25.2010   -74.0390 HW2           1 RES     
    9650 OW          -4.2520     4.2920   -72.7230 OW            1 RES     
    9651 HW1         -4.2850     4.5340   -71.7530 HW1           1 RES     
    9652 HW2         -3.3110     4.3660   -73.0530 HW2           1 RES     
    9653 OW          -4.2530    28.7560   -62.4770 OW            1 RES     
    9654 HW1         -3.4890    28.7130   -63.1210 HW1           1 RES     
    9655 HW2         -5.0410    28.2760   -62.8630 HW2           1 RES     
    9656 OW          15.3050    36.2090   -66.3760 OW            1 RES     
    9657 HW1         16.1770    36.1070   -65.8990 HW1           1 RES     
    9658 HW2         14.7980    36.9760   -65.9830 HW2           1 RES     
    9659 OW          26.3250    35.2870   -68.1360 OW            1 RES     
    9660 HW1         25.5820    34.6490   -67.9380 HW1           1 RES     
    9661 HW2         27.1870    34.9130   -67.7940 HW2           1 RES     
    9662 OW          -4.3160    34.9550   -73.5510 OW            1 RES     
    9663 HW1         -4.2600    35.1880   -72.5810 HW1           1 RES     
    9664 HW2         -3.5470    35.3670   -74.0390 HW2           1 RES     
    9665 OW           3.4700    24.9280   -59.6290 OW            1 RES     
    9666 HW1          4.0290    24.6280   -58.8560 HW1           1 RES     
    9667 HW2          3.6540    25.8920   -59.8190 HW2           1 RES     
    9668 OW           4.8800    10.1710   -59.1190 OW            1 RES     
    9669 HW1          5.6490     9.8800   -58.5510 HW1           1 RES     
    9670 HW2          4.2070    10.6460   -58.5520 HW2           1 RES     
    9671 OW          33.1010    33.0190   -73.2540 OW            1 RES     
    9672 HW1         33.7190    33.0660   -74.0380 HW1           1 RES     
    9673 HW2         32.1570    32.9470   -73.5750 HW2           1 RES     
    9674 OW          18.7670    20.7760   -60.8600 OW            1 RES     
    9675 HW1         19.5550    20.2170   -60.6060 HW1           1 RES     
    9676 HW2         19.0370    21.7390   -60.8930 HW2           1 RES     
    9677 OW           0.8840     0.5230   -73.7740 OW            1 RES     
    9678 HW1          1.5450    -0.2210   -73.8610 HW1           1 RES     
    9679 HW2         -0.0420     0.1620   -73.8950 HW2           1 RES     
    9680 OW           0.7330    -2.4950   -63.6970 OW            1 RES     
    9681 HW1          0.0270    -1.8420   -63.9720 HW1           1 RES     
    9682 HW2          0.4740    -3.4130   -63.9990 HW2           1 RES     
    9683 OW          28.0330    17.8880   -73.3050 OW            1 RES     
    9684 HW1         27.1530    18.1720   -73.6850 HW1           1 RES     
    9685 HW2         28.6150    17.5370   -74.0390 HW2           1 RES     
    9686 OW           2.1660    12.5170   -59.7650 OW            1 RES     
    9687 HW1          2.3290    11.5350   -59.8510 HW1           1 RES     
    9688 HW2          3.0370    13.0060   -59.8170 HW2           1 RES     
    9689 OW           1.6150    22.3100   -66.4360 OW            1 RES     
    9690 HW1          1.6620    23.2890   -66.2370 HW1           1 RES     
    9691 HW2          0.6610    22.0090   -66.4040 HW2           1 RES     
    9692 OW          25.5540     7.1090   -69.9530 OW            1 RES     
    9693 HW1         25.2010     7.3060   -70.8670 HW1           1 RES     
    9694 HW2         26.2270     7.8030   -69.6980 HW2           1 RES     
    9695 OW          40.8480    17.0560   -71.1160 OW            1 RES     
    9696 HW1         40.0410    16.7560   -71.6240 HW1           1 RES     
    9697 HW2         41.5390    17.3950   -71.7550 HW2           1 RES     
    9698 OW           0.1840    24.2630   -67.7760 OW            1 RES     
    9699 HW1          0.2910    25.2560   -67.7690 HW1           1 RES     
    9700 HW2         -0.7870    24.0310   -67.7210 HW2           1 RES     
    9701 OW          25.9520    24.6830   -61.2550 OW            1 RES     
    9702 HW1         26.3360    25.2720   -61.9650 HW1           1 RES     
    9703 HW2         26.3260    23.7600   -61.3480 HW2           1 RES     
    9704 OW           1.7130    30.2920   -65.8440 OW            1 RES     
    9705 HW1          2.3320    31.0760   -65.8150 HW1           1 RES     
    9706 HW2          2.2450    29.4450   -65.8340 HW2           1 RES     
    9707 OW          31.2200    15.9690   -66.8050 OW            1 RES     
    9708 HW1         31.3750    15.9520   -67.7920 HW1           1 RES     
    9709 HW2         31.0630    15.0370   -66.4760 HW2           1 RES     
    9710 OW          17.6680    40.1850   -66.2460 OW            1 RES     
    9711 HW1         18.5660    40.4020   -66.6280 HW1           1 RES     
    9712 HW2         17.3060    39.3640   -66.6870 HW2           1 RES     
    9713 OW          -6.7040    31.2460   -60.3610 OW            1 RES     
    9714 HW1         -5.9970    30.8550   -60.9490 HW1           1 RES     
    9715 HW2         -6.7720    30.7110   -59.5190 HW2           1 RES     
    9716 OW          33.5700    31.4010   -64.2060 OW            1 RES     
    9717 HW1         34.2030    31.2790   -63.4430 HW1           1 RES     
    9718 HW2         33.4620    30.5340   -64.6930 HW2           1 RES     
    9719 OW          25.8080    40.5300   -59.9030 OW            1 RES     
    9720 HW1         26.0130    41.5080   -59.8750 HW1           1 RES     
    9721 HW2         24.8620    40.3950   -60.1980 HW2           1 RES     
    9722 OW           4.6300     6.6530   -67.7480 OW            1 RES     
    9723 HW1          4.4230     6.6270   -68.7250 HW1           1 RES     
    9724 HW2          3.8440     7.0180   -67.2490 HW2           1 RES     
    9725 OW          22.7040    33.3200   -64.5160 OW            1 RES     
    9726 HW1         23.5700    32.8910   -64.2610 HW1           1 RES     
    9727 HW2         22.1240    33.4070   -63.7060 HW2           1 RES     
    9728 OW          31.2880    12.6000   -62.4500 OW            1 RES     
    9729 HW1         30.4810    12.5960   -63.0390 HW1           1 RES     
    9730 HW2         31.8220    13.4290   -62.6200 HW2           1 RES     
    9731 OW          15.6400    28.6510   -73.8180 OW            1 RES     
    9732 HW1         16.2210    29.4370   -74.0280 HW1           1 RES     
    9733 HW2         14.6890    28.8700   -74.0380 HW2           1 RES     
    9734 OW          34.8140     6.8980   -68.8680 OW            1 RES     
    9735 HW1         34.9300     6.0340   -69.3560 HW1           1 RES     
    9736 HW2         34.0280     6.8320   -68.2530 HW2           1 RES     
    9737 OW          -5.5940    38.5230   -60.1950 OW            1 RES     
    9738 HW1         -6.2970    37.8230   -60.3110 HW1           1 RES     
    9739 HW2         -5.3490    38.5940   -59.2280 HW2           1 RES     
    9740 OW          39.2390    -0.7890   -69.7540 OW            1 RES     
    9741 HW1         40.1030    -0.6830   -70.2440 HW1           1 RES     
    9742 HW2         38.6460    -0.0090   -69.9510 HW2           1 RES     
    9743 OW           0.7090    35.2610   -66.5050 OW            1 RES     
    9744 HW1          0.0630    35.8730   -66.9600 HW1           1 RES     
    9745 HW2          1.1870    35.7570   -65.7800 HW2           1 RES     
    9746 OW           6.6630    35.6420   -66.2830 OW            1 RES     
    9747 HW1          5.7660    35.9890   -66.5550 HW1           1 RES     
    9748 HW2          6.9140    34.8700   -66.8680 HW2           1 RES     
    9749 OW          30.7930    22.5830   -68.5480 OW            1 RES     
    9750 HW1         30.4820    22.3280   -69.4620 HW1           1 RES     
    9751 HW2         30.0830    23.1170   -68.0900 HW2           1 RES     
    9752 OW           8.6570    23.8890   -64.2340 OW            1 RES     
    9753 HW1          8.7890    22.9380   -63.9560 HW1           1 RES     
    9754 HW2          7.6920    24.1330   -64.1400 HW2           1 RES     
    9755 OW          45.0340    29.9670   -73.2880 OW            1 RES     
    9756 HW1         44.8780    29.3260   -74.0390 HW1           1 RES     
    9757 HW2         44.6120    30.8470   -73.5060 HW2           1 RES     
    9758 OW          -3.6240    21.8160   -69.8120 OW            1 RES     
    9759 HW1         -4.2750    22.4860   -69.4590 HW1           1 RES     
    9760 HW2         -2.7590    22.2700   -70.0260 HW2           1 RES     
    9761 OW          38.0410    17.9030   -67.7090 OW            1 RES     
    9762 HW1         37.1670    18.3820   -67.6400 HW1           1 RES     
    9763 HW2         38.7870    18.5690   -67.7120 HW2           1 RES     
    9764 OW          15.6360    38.8750   -72.5590 OW            1 RES     
    9765 HW1         14.8880    39.4060   -72.1610 HW1           1 RES     
    9766 HW2         16.5010    39.3540   -72.4090 HW2           1 RES     
    9767 OW          41.6920    12.5860   -71.3160 OW            1 RES     
    9768 HW1         42.5210    12.8260   -71.8210 HW1           1 RES     
    9769 HW2         41.4810    13.3090   -70.6580 HW2           1 RES     
    9770 OW          18.3320    23.2420   -64.0160 OW            1 RES     
    9771 HW1         18.4800    24.2310   -64.0260 HW1           1 RES     
    9772 HW2         17.3510    23.0520   -63.9770 HW2           1 RES     
    9773 OW           3.8120    32.5920   -67.5150 OW            1 RES     
    9774 HW1          4.4360    31.8970   -67.8730 HW1           1 RES     
    9775 HW2          2.8670    32.3120   -67.6860 HW2           1 RES     
    9776 OW          32.2620    41.2300   -67.6420 OW            1 RES     
    9777 HW1         32.2250    40.2650   -67.8990 HW1           1 RES     
    9778 HW2         33.0530    41.3870   -67.0500 HW2           1 RES     
    9779 OW          35.4810    -0.5230   -63.1750 OW            1 RES     
    9780 HW1         35.4470    -1.5160   -63.0750 HW1           1 RES     
    9781 HW2         36.4350    -0.2240   -63.2170 HW2           1 RES     
    9782 OW          38.4370    10.5750   -69.4930 OW            1 RES     
    9783 HW1         37.8380    11.1070   -70.0910 HW1           1 RES     
    9784 HW2         39.3160    10.4280   -69.9470 HW2           1 RES     
    9785 OW          37.1010    22.0340   -64.2260 OW            1 RES     
    9786 HW1         37.9220    22.2280   -64.7600 HW1           1 RES     
    9787 HW2         36.3350    22.5690   -64.5850 HW2           1 RES     
    9788 OW           9.0510    28.2840   -74.0390 OW            1 RES     
    9789 HW1          8.3720    27.5620   -73.9140 HW1           1 RES     
    9790 HW2          9.0910    28.8510   -73.2160 HW2           1 RES     
    9791 OW          16.3570    13.9630   -65.2420 OW            1 RES     
    9792 HW1         16.7720    14.0900   -64.3420 HW1           1 RES     
    9793 HW2         17.0320    13.5730   -65.8690 HW2           1 RES     
    9794 OW          34.9090    37.9170   -69.0910 OW            1 RES     
    9795 HW1         34.4950    38.7420   -69.4740 HW1           1 RES     
    9796 HW2         35.8560    38.1080   -68.8340 HW2           1 RES     
    9797 OW          -5.4640    15.0490   -70.5710 OW            1 RES     
    9798 HW1         -6.4220    15.2620   -70.7550 HW1           1 RES     
    9799 HW2         -4.9970    15.8690   -70.2390 HW2           1 RES     
    9800 OW          24.0430    14.6430   -65.0350 OW            1 RES     
    9801 HW1         23.3590    15.2400   -65.4530 HW1           1 RES     
    9802 HW2         23.5840    13.9050   -64.5390 HW2           1 RES     
    9803 OW          44.1530    20.4250   -71.1760 OW            1 RES     
    9804 HW1         43.8520    19.6430   -70.6310 HW1           1 RES     
    9805 HW2         43.3850    21.0490   -71.3190 HW2           1 RES     
    9806 OW           2.2660     0.4230   -69.4710 OW            1 RES     
    9807 HW1          1.6700    -0.3780   -69.5070 HW1           1 RES     
    9808 HW2          3.2220     0.1310   -69.4990 HW2           1 RES     
    9809 OW           1.9770    27.6490   -63.0560 OW            1 RES     
    9810 HW1          1.7500    28.1680   -63.8800 HW1           1 RES     
    9811 HW2          1.7290    26.6890   -63.1870 HW2           1 RES     
    9812 OW          -3.0190    36.6640   -60.5680 OW            1 RES     
    9813 HW1         -2.1960    37.2020   -60.7490 HW1           1 RES     
    9814 HW2         -3.7980    37.2770   -60.4410 HW2           1 RES     
    9815 OW          37.8850    15.8820   -70.1200 OW            1 RES     
    9816 HW1         37.6790    14.9240   -70.3160 HW1           1 RES     
    9817 HW2         38.8630    15.9820   -69.9350 HW2           1 RES     
    9818 OW          30.3280    18.1330   -68.5040 OW            1 RES     
    9819 HW1         29.9360    17.2770   -68.8410 HW1           1 RES     
    9820 HW2         31.3230    18.0480   -68.4580 HW2           1 RES     
    9821 OW          19.4890    17.2600   -60.6680 OW            1 RES     
    9822 HW1         19.5220    16.3250   -61.0180 HW1           1 RES     
    9823 HW2         18.7500    17.7600   -61.1190 HW2           1 RES     
    9824 OW          22.1060     9.1830   -64.5410 OW            1 RES     
    9825 HW1         22.9650     9.0380   -65.0320 HW1           1 RES     
    9826 HW2         21.4800     9.7140   -65.1120 HW2           1 RES     
    9827 OW           4.9050    23.8090   -64.0490 OW            1 RES     
    9828 HW1          5.6280    23.3120   -64.5270 HW1           1 RES     
    9829 HW2          4.8270    23.4670   -63.1130 HW2           1 RES     
    9830 OW          20.8350    -1.7080   -65.1570 OW            1 RES     
    9831 HW1         20.9980    -2.6930   -65.1840 HW1           1 RES     
    9832 HW2         20.8620    -1.3910   -64.2080 HW2           1 RES     
    9833 OW          32.1290    15.8460   -71.0270 OW            1 RES     
    9834 HW1         32.3290    16.6080   -70.4120 HW1           1 RES     
    9835 HW2         32.9800    15.3830   -71.2730 HW2           1 RES     
    9836 OW          15.8200    24.0410   -73.3330 OW            1 RES     
    9837 HW1         16.4180    23.2510   -73.2070 HW1           1 RES     
    9838 HW2         16.0470    24.7430   -72.6570 HW2           1 RES     
    9839 OW          10.6200     2.2120   -74.0390 OW            1 RES     
    9840 HW1          9.9720     1.4520   -74.0350 HW1           1 RES     
    9841 HW2         10.1200     3.0780   -74.0310 HW2           1 RES     
    9842 OW          -0.4820    36.2560   -61.7510 OW            1 RES     
    9843 HW1          0.2400    35.5760   -61.8780 HW1           1 RES     
    9844 HW2         -0.0730    37.1630   -61.6500 HW2           1 RES     
    9845 OW          21.5990    29.4800   -73.9350 OW            1 RES     
    9846 HW1         20.7130    29.0520   -73.7600 HW1           1 RES     
    9847 HW2         21.5300    30.4660   -73.7800 HW2           1 RES     
    9848 OW          -3.8290    39.9510   -60.1180 OW            1 RES     
    9849 HW1         -3.0740    40.2380   -59.5290 HW1           1 RES     
    9850 HW2         -3.6300    40.2080   -61.0640 HW2           1 RES     
    9851 OW          32.6770    -0.0110   -63.3360 OW            1 RES     
    9852 HW1         33.1450    -0.6870   -63.9050 HW1           1 RES     
    9853 HW2         31.9220     0.3940   -63.8510 HW2           1 RES     
    9854 OW          27.5140    25.5530   -66.7980 OW            1 RES     
    9855 HW1         28.1280    24.8190   -66.5070 HW1           1 RES     
    9856 HW2         26.6310    25.4500   -66.3390 HW2           1 RES     
    9857 OW          20.5990     0.2640   -61.4320 OW            1 RES     
    9858 HW1         21.2040     0.9500   -61.0290 HW1           1 RES     
    9859 HW2         20.4780     0.4570   -62.4060 HW2           1 RES     
    9860 OW           4.8240     0.4130   -63.4770 OW            1 RES     
    9861 HW1          3.8310     0.5120   -63.5390 HW1           1 RES     
    9862 HW2          5.0500    -0.5160   -63.1830 HW2           1 RES     
    9863 OW          34.8560    11.8210   -72.6100 OW            1 RES     
    9864 HW1         35.4640    11.2320   -72.0800 HW1           1 RES     
    9865 HW2         35.2290    11.9460   -73.5300 HW2           1 RES     
    9866 OW          36.1950    19.4860   -71.3630 OW            1 RES     
    9867 HW1         36.2380    18.5750   -71.7710 HW1           1 RES     
    9868 HW2         35.6660    19.4480   -70.5160 HW2           1 RES     
    9869 OW          34.9590    25.4270   -60.4550 OW            1 RES     
    9870 HW1         35.0520    24.5270   -60.0310 HW1           1 RES     
    9871 HW2         34.1010    25.8480   -60.1610 HW2           1 RES     
    9872 OW           9.9810    17.8300   -73.6270 OW            1 RES     
    9873 HW1         10.8510    18.1000   -74.0390 HW1           1 RES     
    9874 HW2          9.6690    16.9730   -74.0370 HW2           1 RES     
    9875 OW          -5.7710    -0.0290   -71.3750 OW            1 RES     
    9876 HW1         -6.5050     0.6480   -71.4070 HW1           1 RES     
    9877 HW2         -5.0830     0.1920   -72.0670 HW2           1 RES     
    9878 OW          -6.4640    28.9720   -64.9030 OW            1 RES     
    9879 HW1         -5.5270    29.3090   -64.9920 HW1           1 RES     
    9880 HW2         -6.7730    29.0870   -63.9590 HW2           1 RES     
    9881 OW          33.0480    -1.3730   -73.6780 OW            1 RES     
    9882 HW1         32.1760    -1.0450   -74.0390 HW1           1 RES     
    9883 HW2         33.7130    -0.6270   -73.6800 HW2           1 RES     
    9884 OW          10.4180    20.8200   -61.7790 OW            1 RES     
    9885 HW1         10.3960    20.5000   -60.8320 HW1           1 RES     
    9886 HW2          9.9090    21.6770   -61.8530 HW2           1 RES     
    9887 OW          -5.9130    36.5540   -73.0740 OW            1 RES     
    9888 HW1         -6.0740    36.3460   -74.0380 HW1           1 RES     
    9889 HW2         -6.7730    36.4840   -72.5690 HW2           1 RES     
    9890 OW          26.5210    26.3270   -70.8420 OW            1 RES     
    9891 HW1         25.9260    26.6810   -71.5620 HW1           1 RES     
    9892 HW2         26.4620    25.3290   -70.8210 HW2           1 RES     
    9893 OW          29.8350    34.5510   -71.3270 OW            1 RES     
    9894 HW1         29.8080    35.5440   -71.2230 HW1           1 RES     
    9895 HW2         30.7850    34.2500   -71.4140 HW2           1 RES     
    9896 OW          -3.0090     5.6450   -66.5820 OW            1 RES     
    9897 HW1         -2.4160     6.2830   -67.0720 HW1           1 RES     
    9898 HW2         -2.4560     5.0690   -65.9800 HW2           1 RES     
    9899 OW           5.7660    23.1260   -59.3380 OW            1 RES     
    9900 HW1          5.2060    22.7900   -58.5810 HW1           1 RES     
    9901 HW2          5.6290    22.5420   -60.1380 HW2           1 RES     
    9902 OW          -5.9690    23.7660   -70.0350 OW            1 RES     
    9903 HW1         -5.4200    24.5260   -69.6890 HW1           1 RES     
    9904 HW2         -6.7730    24.1240   -70.5110 HW2           1 RES     
    9905 OW          19.9440    42.5580   -65.3450 OW            1 RES     
    9906 HW1         19.2950    43.3130   -65.2630 HW1           1 RES     
    9907 HW2         20.8760    42.9200   -65.3770 HW2           1 RES     
    9908 OW          11.3850    34.5810   -62.9450 OW            1 RES     
    9909 HW1         12.2020    34.0530   -63.1730 HW1           1 RES     
    9910 HW2         11.6340    35.3390   -62.3420 HW2           1 RES     
    9911 OW          40.3640    29.0130   -59.0840 OW            1 RES     
    9912 HW1         40.5800    29.9710   -59.2700 HW1           1 RES     
    9913 HW2         39.5180    28.9590   -58.5540 HW2           1 RES     
    9914 OW          32.4580    33.6060   -68.7570 OW            1 RES     
    9915 HW1         31.5960    33.9230   -69.1510 HW1           1 RES     
    9916 HW2         32.8790    34.3480   -68.2340 HW2           1 RES     
    9917 OW           5.9900    27.0780   -60.8440 OW            1 RES     
    9918 HW1          6.6830    27.5570   -61.3820 HW1           1 RES     
    9919 HW2          6.3730    26.8220   -59.9570 HW2           1 RES     
    9920 OW          12.1610    34.8870   -73.3980 OW            1 RES     
    9921 HW1         12.1690    35.8410   -73.6970 HW1           1 RES     
    9922 HW2         12.6930    34.3330   -74.0390 HW2           1 RES     
    9923 OW          26.3440    36.5750   -58.5530 OW            1 RES     
    9924 HW1         26.8580    37.4320   -58.5510 HW1           1 RES     
    9925 HW2         25.3640    36.7730   -58.5670 HW2           1 RES     
    9926 OW          42.4670    27.4140   -58.7810 OW            1 RES     
    9927 HW1         42.5510    28.3700   -59.0570 HW1           1 RES     
    9928 HW2         41.5140    27.2150   -58.5520 HW2           1 RES     
    9929 OW          19.2430    -0.2960   -71.9480 OW            1 RES     
    9930 HW1         19.6490    -1.2080   -71.9840 HW1           1 RES     
    9931 HW2         18.7160    -0.1310   -72.7820 HW2           1 RES     
    9932 OW          40.7680    30.6600   -67.5960 OW            1 RES     
    9933 HW1         40.7200    29.6620   -67.6140 HW1           1 RES     
    9934 HW2         40.3430    31.0300   -68.4230 HW2           1 RES     
    9935 OW           2.1090    35.1160   -69.1070 OW            1 RES     
    9936 HW1          1.4750    35.8270   -68.8040 HW1           1 RES     
    9937 HW2          2.8670    35.5360   -69.6060 HW2           1 RES     
    9938 OW          41.8960     5.1750   -63.4770 OW            1 RES     
    9939 HW1         42.0570     4.4280   -64.1220 HW1           1 RES     
    9940 HW2         41.8150     6.0360   -63.9780 HW2           1 RES     
    9941 OW          16.5860    20.2150   -65.2190 OW            1 RES     
    9942 HW1         15.9250    20.8940   -64.9010 HW1           1 RES     
    9943 HW2         16.3130    19.3080   -64.8980 HW2           1 RES     
    9944 OW          14.2530    27.7810   -68.8810 OW            1 RES     
    9945 HW1         15.2390    27.9410   -68.9140 HW1           1 RES     
    9946 HW2         13.7740    28.6570   -68.8130 HW2           1 RES     
    9947 OW          -6.3770    16.4280   -63.9720 OW            1 RES     
    9948 HW1         -6.2500    16.3210   -62.9870 HW1           1 RES     
    9949 HW2         -6.7720    15.5910   -64.3500 HW2           1 RES     
    9950 OW          33.0570    27.7790   -71.0640 OW            1 RES     
    9951 HW1         33.5930    26.9530   -70.8950 HW1           1 RES     
    9952 HW2         32.0830    27.5690   -70.9740 HW2           1 RES     
    9953 OW          19.0250    -2.8130   -73.3640 OW            1 RES     
    9954 HW1         19.0370    -1.9990   -73.9440 HW1           1 RES     
    9955 HW2         18.1660    -2.8460   -72.8530 HW2           1 RES     
    9956 OW          30.4200    29.6440   -65.7020 OW            1 RES     
    9957 HW1         29.8120    29.0680   -65.1570 HW1           1 RES     
    9958 HW2         30.6290    29.1850   -66.5660 HW2           1 RES     
    9959 OW          10.2750    32.5430   -62.7750 OW            1 RES     
    9960 HW1         10.2150    31.7410   -62.1820 HW1           1 RES     
    9961 HW2         10.8660    32.3370   -63.5560 HW2           1 RES     
    9962 OW          28.1950    10.5860   -63.0600 OW            1 RES     
    9963 HW1         29.1620    10.8370   -63.1000 HW1           1 RES     
    9964 HW2         28.1090     9.5890   -63.0540 HW2           1 RES     
    9965 OW          -4.7580    33.9480   -66.2780 OW            1 RES     
    9966 HW1         -4.4630    33.5920   -65.3920 HW1           1 RES     
    9967 HW2         -4.6290    34.9400   -66.2990 HW2           1 RES     
    9968 OW          21.9560    23.1940   -59.3450 OW            1 RES     
    9969 HW1         21.4740    22.4080   -58.9610 HW1           1 RES     
    9970 HW2         22.8280    22.8930   -59.7340 HW2           1 RES     
    9971 OW          -2.5980    20.2680   -68.5570 OW            1 RES     
    9972 HW1         -2.6260    19.8830   -69.4790 HW1           1 RES     
    9973 HW2         -3.2800    19.8130   -67.9840 HW2           1 RES     
    9974 OW          38.2440    43.1090   -65.9770 OW            1 RES     
    9975 HW1         38.0580    42.2030   -66.3550 HW1           1 RES     
    9976 HW2         39.2320    43.2450   -65.9070 HW2           1 RES     
    9977 OW          33.8720    36.1610   -61.0990 OW            1 RES     
    9978 HW1         33.5810    36.8170   -60.4040 HW1           1 RES     
    9979 HW2         33.0840    35.8890   -61.6530 HW2           1 RES     
    9980 OW          10.2340    37.6090   -63.5570 OW            1 RES     
    9981 HW1         10.8430    38.3940   -63.4550 HW1           1 RES     
    9982 HW2          9.4750    37.6890   -62.9110 HW2           1 RES     
    9983 OW          15.8080     9.9990   -67.1090 OW            1 RES     
    9984 HW1         14.8900    10.2020   -66.7700 HW1           1 RES     
    9985 HW2         16.1850     9.2200   -66.6060 HW2           1 RES     
    9986 OW          23.8270    37.6900   -72.3160 OW            1 RES     
    9987 HW1         23.2950    36.8740   -72.5400 HW1           1 RES     
    9988 HW2         24.6850    37.4200   -71.8780 HW2           1 RES     
    9989 OW          30.6330     9.3820   -64.6590 OW            1 RES     
    9990 HW1         29.6340     9.3500   -64.6510 HW1           1 RES     
    9991 HW2         30.9980     8.4520   -64.6290 HW2           1 RES     
    9992 OW          41.3600    -3.2860   -65.1400 OW            1 RES     
    9993 HW1         41.0240    -4.2210   -65.2440 HW1           1 RES     
    9994 HW2         42.3430    -3.2610   -65.3270 HW2           1 RES     
    9995 OW          -4.0100     7.8610   -68.7320 OW            1 RES     
    9996 HW1         -4.0320     7.6040   -67.7660 HW1           1 RES     
    9997 HW2         -4.7150     8.5480   -68.9110 HW2           1 RES     
    9998 OW          28.9200    15.5970   -72.1420 OW            1 RES     
    9999 HW1         28.0360    15.1410   -72.2420 HW1           1 RES     
   10000 HW2         28.8730    16.2560   -71.3920 HW2           1 RES     
   10001 OW          22.6560    19.9970   -66.0990 OW            1 RES     
   10002 HW1         21.7740    19.5560   -65.9390 HW1           1 RES     
   10003 HW2         23.3720    19.3010   -66.1550 HW2           1 RES     
   10004 OW          14.9780    -2.4520   -73.5890 OW            1 RES     
   10005 HW1         15.9530    -2.5600   -73.7800 HW1           1 RES     
   10006 HW2         14.7210    -1.4910   -73.6960 HW2           1 RES     
   10007 OW           5.7260    32.2950   -69.8020 OW            1 RES     
   10008 HW1          6.6890    32.4790   -69.6060 HW1           1 RES     
   10009 HW2          5.5030    32.6280   -70.7190 HW2           1 RES     
   10010 OW          27.5240    10.5580   -70.1990 OW            1 RES     
   10011 HW1         26.9980    10.2040   -69.4270 HW1           1 RES     
   10012 HW2         28.0680     9.8210   -70.6000 HW2           1 RES     
   10013 OW          -3.1780    -4.3040   -62.6790 OW            1 RES     
   10014 HW1         -2.7690    -3.3940   -62.6150 HW1           1 RES     
   10015 HW2         -3.8530    -4.3150   -63.4170 HW2           1 RES     
   10016 OW          40.3970    34.9320   -71.8310 OW            1 RES     
   10017 HW1         40.8800    35.6690   -71.3600 HW1           1 RES     
   10018 HW2         41.0400    34.4260   -72.4070 HW2           1 RES     
   10019 OW          38.2380    37.0950   -67.5840 OW            1 RES     
   10020 HW1         37.2540    36.9230   -67.6150 HW1           1 RES     
   10021 HW2         38.4020    38.0730   -67.4530 HW2           1 RES     
   10022 OW          28.1630    32.2810   -59.5250 OW            1 RES     
   10023 HW1         27.7540    31.4020   -59.7650 HW1           1 RES     
   10024 HW2         28.3900    32.2890   -58.5510 HW2           1 RES     
   10025 OW          37.0920    -1.4780   -72.3040 OW            1 RES     
   10026 HW1         37.5110    -2.3840   -72.3300 HW1           1 RES     
   10027 HW2         37.4280    -0.9770   -71.5060 HW2           1 RES     
   10028 OW          15.8810    28.7520   -61.1500 OW            1 RES     
   10029 HW1         16.2370    27.8600   -60.8730 HW1           1 RES     
   10030 HW2         14.8810    28.7330   -61.1340 HW2           1 RES     
   10031 OW           5.8400    19.1600   -61.4400 OW            1 RES     
   10032 HW1          5.0610    19.1000   -60.8180 HW1           1 RES     
   10033 HW2          5.9450    20.1040   -61.7540 HW2           1 RES     
   10034 OW          20.3750    17.8950   -67.3760 OW            1 RES     
   10035 HW1         19.9750    17.8010   -66.4650 HW1           1 RES     
   10036 HW2         19.7280    17.5610   -68.0610 HW2           1 RES     
   10037 OW          30.0020    25.4720   -61.5420 OW            1 RES     
   10038 HW1         30.4410    25.1010   -62.3590 HW1           1 RES     
   10039 HW2         30.5080    26.2740   -61.2260 HW2           1 RES     
   10040 OW          24.7940     9.8900   -73.6120 OW            1 RES     
   10041 HW1         24.9080     8.9940   -74.0390 HW1           1 RES     
   10042 HW2         25.6930    10.2980   -73.4460 HW2           1 RES     
   10043 OW          18.2440    29.0420   -65.3730 OW            1 RES     
   10044 HW1         17.3330    29.3250   -65.0750 HW1           1 RES     
   10045 HW2         18.4520    28.1380   -65.0000 HW2           1 RES     
   10046 OW          26.6040    36.8250   -63.1370 OW            1 RES     
   10047 HW1         26.2240    37.7070   -63.4120 HW1           1 RES     
   10048 HW2         25.8630    36.2180   -62.8490 HW2           1 RES     
   10049 OW           3.5880     8.7260   -72.7720 OW            1 RES     
   10050 HW1          3.9880     9.6210   -72.5780 HW1           1 RES     
   10051 HW2          2.6260     8.7230   -72.5000 HW2           1 RES     
   10052 OW          17.2870     3.9810   -63.6910 OW            1 RES     
   10053 HW1         16.9170     4.9060   -63.7720 HW1           1 RES     
   10054 HW2         18.2530     4.0290   -63.4340 HW2           1 RES     
   10055 OW          44.5230    37.1550   -72.6520 OW            1 RES     
   10056 HW1         45.1030    37.9640   -72.7390 HW1           1 RES     
   10057 HW2         45.0160    36.3530   -72.9910 HW2           1 RES     
   10058 OW          16.6510     9.3340   -64.1920 OW            1 RES     
   10059 HW1         16.9070     9.3610   -63.2270 HW1           1 RES     
   10060 HW2         17.4730     9.3920   -64.7580 HW2           1 RES     
   10061 OW          39.6020    -3.0780   -72.0950 OW            1 RES     
   10062 HW1         40.0340    -3.7020   -71.4450 HW1           1 RES     
   10063 HW2         39.3760    -3.5740   -72.9340 HW2           1 RES     
   10064 OW          11.7470    11.7010   -71.1130 OW            1 RES     
   10065 HW1         10.8260    11.3120   -71.1140 HW1           1 RES     
   10066 HW2         11.6870    12.7000   -71.1090 HW2           1 RES     
   10067 OW          13.3760    34.1950   -59.7150 OW            1 RES     
   10068 HW1         13.0990    35.0830   -59.3480 HW1           1 RES     
   10069 HW2         13.0730    34.1170   -60.6650 HW2           1 RES     
   10070 OW          43.5240    24.1570   -69.8980 OW            1 RES     
   10071 HW1         43.9500    24.5730   -69.0960 HW1           1 RES     
   10072 HW2         42.6730    23.7070   -69.6290 HW2           1 RES     
   10073 OW          -0.9330    37.5530   -72.1960 OW            1 RES     
   10074 HW1         -0.3440    37.9620   -71.4990 HW1           1 RES     
   10075 HW2         -0.6730    36.5970   -72.3330 HW2           1 RES     
   10076 OW          -1.7300    28.2780   -65.0720 OW            1 RES     
   10077 HW1         -0.7420    28.4070   -65.0000 HW1           1 RES     
   10078 HW2         -1.9420    27.7930   -65.9210 HW2           1 RES     
   10079 OW          42.1450    24.8540   -60.3590 OW            1 RES     
   10080 HW1         41.5380    24.6140   -59.6030 HW1           1 RES     
   10081 HW2         42.3890    25.8220   -60.2970 HW2           1 RES     
   10082 OW          40.0370    34.0140   -64.1230 OW            1 RES     
   10083 HW1         40.2960    34.9250   -64.4400 HW1           1 RES     
   10084 HW2         40.8600    33.4640   -63.9780 HW2           1 RES     
   10085 OW          -1.1750    10.5820   -72.4550 OW            1 RES     
   10086 HW1         -0.5480    11.2870   -72.7850 HW1           1 RES     
   10087 HW2         -0.8790     9.6880   -72.7900 HW2           1 RES     
   10088 OW          20.6780     4.5460   -63.8800 OW            1 RES     
   10089 HW1         20.3670     3.5970   -63.8640 HW1           1 RES     
   10090 HW2         20.7220     4.8990   -62.9450 HW2           1 RES     
   10091 OW          -1.3680    33.6910   -63.2410 OW            1 RES     
   10092 HW1         -1.9730    33.2540   -62.5770 HW1           1 RES     
   10093 HW2         -0.4880    33.2160   -63.2540 HW2           1 RES     
   10094 OW           6.9900    42.3190   -72.5850 OW            1 RES     
   10095 HW1          7.0810    43.2670   -72.2830 HW1           1 RES     
   10096 HW2          6.6610    41.7570   -71.8260 HW2           1 RES     
   10097 OW          41.0310    -1.4260   -67.3470 OW            1 RES     
   10098 HW1         40.4730    -2.0220   -66.7700 HW1           1 RES     
   10099 HW2         40.7270    -1.5000   -68.2970 HW2           1 RES     
   10100 OW          22.8090     4.3350   -62.5350 OW            1 RES     
   10101 HW1         23.4740     4.8360   -61.9830 HW1           1 RES     
   10102 HW2         22.9050     3.3540   -62.3660 HW2           1 RES     
   10103 OW          42.9370    10.0760   -70.2890 OW            1 RES     
   10104 HW1         43.2080     9.7330   -69.3900 HW1           1 RES     
   10105 HW2         42.0150     9.7540   -70.5050 HW2           1 RES     
   10106 OW           6.2690    29.1310   -72.7510 OW            1 RES     
   10107 HW1          6.5660    29.0140   -71.8040 HW1           1 RES     
   10108 HW2          5.4930    28.5280   -72.9340 HW2           1 RES     
   10109 OW          30.3160    18.2250   -61.8760 OW            1 RES     
   10110 HW1         30.1750    17.5750   -61.1300 HW1           1 RES     
   10111 HW2         29.6250    18.0770   -62.5840 HW2           1 RES     
   10112 OW          24.3270    10.3150   -61.3360 OW            1 RES     
   10113 HW1         23.8760    11.0850   -60.8850 HW1           1 RES     
   10114 HW2         24.4210     9.5580   -60.6890 HW2           1 RES     
   10115 OW          -2.5610    -0.5310   -72.3170 OW            1 RES     
   10116 HW1         -2.0840    -1.3810   -72.0950 HW1           1 RES     
   10117 HW2         -2.0600    -0.0440   -73.0320 HW2           1 RES     
   10118 OW          -1.7790    33.5980   -58.8450 OW            1 RES     
   10119 HW1         -0.8880    34.0470   -58.8970 HW1           1 RES     
   10120 HW2         -1.6590    32.6490   -58.5510 HW2           1 RES     
   10121 OW          40.5240    25.7330   -65.2130 OW            1 RES     
   10122 HW1         41.2770    26.2230   -65.6540 HW1           1 RES     
   10123 HW2         39.6650    25.9620   -65.6700 HW2           1 RES     
   10124 OW          22.9140    17.3170   -69.9030 OW            1 RES     
   10125 HW1         21.9480    17.2010   -70.1320 HW1           1 RES     
   10126 HW2         23.3100    16.4300   -69.6670 HW2           1 RES     
   10127 OW          19.5200    32.9550   -69.7890 OW            1 RES     
   10128 HW1         19.4410    33.1160   -70.7720 HW1           1 RES     
   10129 HW2         18.7640    32.3750   -69.4840 HW2           1 RES     
   10130 OW          40.5400     1.8630   -70.7710 OW            1 RES     
   10131 HW1         39.6930     1.5020   -71.1590 HW1           1 RES     
   10132 HW2         41.1750     2.0920   -71.5100 HW2           1 RES     
   10133 OW          -4.0770     3.1910   -60.5590 OW            1 RES     
   10134 HW1         -3.1050     2.9690   -60.4960 HW1           1 RES     
   10135 HW2         -4.2320     4.1170   -60.2130 HW2           1 RES     
   10136 OW          -2.6870    -2.6950   -66.7220 OW            1 RES     
   10137 HW1         -1.8420    -2.5650   -67.2400 HW1           1 RES     
   10138 HW2         -3.1030    -1.8060   -66.5330 HW2           1 RES     
   10139 OW           8.2410     8.9130   -59.3650 OW            1 RES     
   10140 HW1          7.6730     9.7340   -59.4020 HW1           1 RES     
   10141 HW2          7.7330     8.1750   -58.9190 HW2           1 RES     
   10142 OW          11.0530     6.7240   -62.8360 OW            1 RES     
   10143 HW1         10.1110     7.0600   -62.8530 HW1           1 RES     
   10144 HW2         11.0540     5.7290   -62.9330 HW2           1 RES     
   10145 OW          33.0220     9.2700   -68.5170 OW            1 RES     
   10146 HW1         32.5480     8.4200   -68.7440 HW1           1 RES     
   10147 HW2         32.5620    10.0380   -68.9640 HW2           1 RES     
   10148 OW           4.6070    26.3440   -67.1490 OW            1 RES     
   10149 HW1          5.1360    27.0970   -66.7600 HW1           1 RES     
   10150 HW2          4.5120    26.4770   -68.1360 HW2           1 RES     
   10151 OW          35.1420     4.0670   -65.6730 OW            1 RES     
   10152 HW1         36.0620     4.3460   -65.9460 HW1           1 RES     
   10153 HW2         35.1250     3.8840   -64.6900 HW2           1 RES     
   10154 OW          -0.4950    -0.3770   -67.1790 OW            1 RES     
   10155 HW1         -0.2320    -0.9280   -67.9700 HW1           1 RES     
   10156 HW2         -1.4890    -0.4000   -67.0710 HW2           1 RES     
   10157 OW          44.7030    17.6770   -71.1340 OW            1 RES     
   10158 HW1         44.4240    18.0390   -72.0230 HW1           1 RES     
   10159 HW2         44.6760    16.6780   -71.1560 HW2           1 RES     
   10160 OW          21.2000    15.0960   -68.7710 OW            1 RES     
   10161 HW1         21.6580    15.8640   -68.3270 HW1           1 RES     
   10162 HW2         20.6980    15.4230   -69.5720 HW2           1 RES     
   10163 OW          35.4620    27.5120   -62.7830 OW            1 RES     
   10164 HW1         34.7800    26.7870   -62.6920 HW1           1 RES     
   10165 HW2         36.0760    27.4940   -61.9930 HW2           1 RES     
   10166 OW          38.6430    29.2470   -68.2100 OW            1 RES     
   10167 HW1         37.9820    29.7040   -68.8040 HW1           1 RES     
   10168 HW2         38.5380    28.2560   -68.2950 HW2           1 RES     
   10169 OW          34.1410    11.6880   -65.9510 OW            1 RES     
   10170 HW1         33.6370    11.6130   -65.0920 HW1           1 RES     
   10171 HW2         34.9490    11.0990   -65.9170 HW2           1 RES     
   10172 OW          23.8250    11.6140   -68.9530 OW            1 RES     
   10173 HW1         24.2800    12.2650   -68.3460 HW1           1 RES     
   10174 HW2         24.4690    10.8950   -69.2140 HW2           1 RES     
   10175 OW          30.6230     3.1450   -64.2730 OW            1 RES     
   10176 HW1         31.6000     3.0020   -64.4220 HW1           1 RES     
   10177 HW2         30.4530     4.1110   -64.0730 HW2           1 RES     
   10178 OW          20.4200    11.0480   -72.4650 OW            1 RES     
   10179 HW1         20.2090    10.5470   -71.6270 HW1           1 RES     
   10180 HW2         20.9820    10.4760   -73.0630 HW2           1 RES     
   10181 OW          29.7090    18.5700   -64.8320 OW            1 RES     
   10182 HW1         30.5710    18.0710   -64.7450 HW1           1 RES     
   10183 HW2         29.8960    19.5500   -64.9020 HW2           1 RES     
   10184 OW          33.9260    43.3140   -68.1310 OW            1 RES     
   10185 HW1         34.7500    42.8270   -67.8420 HW1           1 RES     
   10186 HW2         33.4040    42.7410   -68.7630 HW2           1 RES     
   10187 OW          30.6460    27.8380   -74.0340 OW            1 RES     
   10188 HW1         30.0420    28.6340   -74.0390 HW1           1 RES     
   10189 HW2         31.4920    28.0640   -73.5500 HW2           1 RES     
   10190 OW          12.7060    -3.3890   -70.6940 OW            1 RES     
   10191 HW1         11.7160    -3.3960   -70.8280 HW1           1 RES     
   10192 HW2         13.0720    -4.3060   -70.8590 HW2           1 RES     
   10193 OW          23.2400    30.0620   -72.4550 OW            1 RES     
   10194 HW1         23.6250    29.1630   -72.2510 HW1           1 RES     
   10195 HW2         23.8140    30.7720   -72.0460 HW2           1 RES     
   10196 OW          43.3720     7.9870   -70.9820 OW            1 RES     
   10197 HW1         43.1300     7.5410   -70.1210 HW1           1 RES     
   10198 HW2         42.6020     7.9260   -71.6170 HW2           1 RES     
   10199 OW           8.5510    32.4910   -60.9540 OW            1 RES     
   10200 HW1          8.8780    33.1680   -60.2960 HW1           1 RES     
   10201 HW2          8.2150    32.9570   -61.7730 HW2           1 RES     
   10202 OW          39.9810    11.0230   -72.9340 OW            1 RES     
   10203 HW1         39.7690    11.2480   -71.9830 HW1           1 RES     
   10204 HW2         40.5950    10.2340   -72.9610 HW2           1 RES     
   10205 OW          28.1650     3.9820   -73.3770 OW            1 RES     
   10206 HW1         29.0620     3.5550   -73.4940 HW1           1 RES     
   10207 HW2         28.2680     4.9770   -73.3680 HW2           1 RES     
   10208 OW          11.1420    23.9780   -72.3640 OW            1 RES     
   10209 HW1         10.5850    24.3950   -71.6460 HW1           1 RES     
   10210 HW2         11.6790    24.6860   -72.8230 HW2           1 RES     
   10211 OW          22.0100    25.1720   -60.9770 OW            1 RES     
   10212 HW1         22.3890    26.0350   -61.3080 HW1           1 RES     
   10213 HW2         22.5720    24.4120   -61.3060 HW2           1 RES     
   10214 OW          18.7730     5.5130   -65.8950 OW            1 RES     
   10215 HW1         19.1510     5.5460   -66.8190 HW1           1 RES     
   10216 HW2         17.7740     5.5420   -65.9420 HW2           1 RES     
   10217 OW          30.8280     6.1240   -66.5620 OW            1 RES     
   10218 HW1         31.7520     6.3390   -66.8750 HW1           1 RES     
   10219 HW2         30.4320     6.9260   -66.1150 HW2           1 RES     
   10220 OW          39.1710    14.7890   -68.0850 OW            1 RES     
   10221 HW1         38.7020    13.9090   -68.0270 HW1           1 RES     
   10222 HW2         40.1160    14.6850   -67.7740 HW2           1 RES     
   10223 OW           8.9920    13.3540   -70.6050 OW            1 RES     
   10224 HW1          9.6970    13.2750   -69.9010 HW1           1 RES     
   10225 HW2          8.6330    12.4470   -70.8210 HW2           1 RES     
   10226 OW          31.1830     9.3650   -59.3070 OW            1 RES     
   10227 HW1         31.7160    10.1150   -58.9190 HW1           1 RES     
   10228 HW2         31.4120     8.5130   -58.8350 HW2           1 RES     
   10229 OW          34.2870    20.7160   -64.1160 OW            1 RES     
   10230 HW1         34.4670    20.7900   -63.1360 HW1           1 RES     
   10231 HW2         35.1530    20.7130   -64.6160 HW2           1 RES     
   10232 OW          30.5130    20.5880   -67.5240 OW            1 RES     
   10233 HW1         29.8350    20.2640   -68.1820 HW1           1 RES     
   10234 HW2         30.7600    19.8440   -66.9040 HW2           1 RES     
   10235 OW          -4.8330     5.1660   -63.6540 OW            1 RES     
   10236 HW1         -5.7460     5.3740   -64.0030 HW1           1 RES     
   10237 HW2         -4.1560     5.3310   -64.3710 HW2           1 RES     
   10238 OW           8.8100    -2.1410   -73.8550 OW            1 RES     
   10239 HW1          9.4020    -1.3380   -73.9180 HW1           1 RES     
   10240 HW2          9.2330    -2.8220   -73.2570 HW2           1 RES     
   10241 OW          37.4080    11.4480   -61.0830 OW            1 RES     
   10242 HW1         37.7480    10.5340   -60.8610 HW1           1 RES     
   10243 HW2         37.4740    11.5970   -62.0700 HW2           1 RES     
   10244 OW          23.0510    -1.5790   -59.2730 OW            1 RES     
   10245 HW1         22.8450    -0.9190   -58.5510 HW1           1 RES     
   10246 HW2         24.0420    -1.6870   -59.3550 HW2           1 RES     
   10247 OW          -5.5380    -0.9580   -67.3740 OW            1 RES     
   10248 HW1         -4.8950    -1.1380   -68.1180 HW1           1 RES     
   10249 HW2         -5.2880    -1.5090   -66.5770 HW2           1 RES     
   10250 OW          15.6750     2.5400   -70.7970 OW            1 RES     
   10251 HW1         16.5130     2.0510   -71.0380 HW1           1 RES     
   10252 HW2         15.9090     3.4070   -70.3570 HW2           1 RES     
   10253 OW          -0.6750    41.1230   -61.4940 OW            1 RES     
   10254 HW1         -1.4690    41.6950   -61.2960 HW1           1 RES     
   10255 HW2         -0.5920    40.4120   -60.7960 HW2           1 RES     
   10256 OW           6.1390    39.8770   -69.5410 OW            1 RES     
   10257 HW1          6.2710    40.0010   -70.5240 HW1           1 RES     
   10258 HW2          5.4690    39.1520   -69.3830 HW2           1 RES     
   10259 OW          42.3280    40.8850   -59.5220 OW            1 RES     
   10260 HW1         42.4100    39.9430   -59.8470 HW1           1 RES     
   10261 HW2         42.5650    40.9250   -58.5510 HW2           1 RES     
   10262 OW          37.5810    -3.7350   -70.5780 OW            1 RES     
   10263 HW1         37.9720    -4.3080   -69.8580 HW1           1 RES     
   10264 HW2         37.2320    -4.3160   -71.3140 HW2           1 RES     
   10265 OW           9.6540    -0.2990   -62.8620 OW            1 RES     
   10266 HW1          9.1770     0.5790   -62.8640 HW1           1 RES     
   10267 HW2         10.6420    -0.1420   -62.8780 HW2           1 RES     
   10268 OW          44.0060    20.4120   -63.8860 OW            1 RES     
   10269 HW1         43.1720    19.8610   -63.9010 HW1           1 RES     
   10270 HW2         44.8050    19.8100   -63.8900 HW2           1 RES     
   10271 OW          18.6980     9.8430   -69.2410 OW            1 RES     
   10272 HW1         19.3420     9.3950   -68.6220 HW1           1 RES     
   10273 HW2         17.8710    10.0950   -68.7380 HW2           1 RES     
   10274 OW          27.3860    -2.6970   -61.2700 OW            1 RES     
   10275 HW1         27.5120    -2.8330   -62.2530 HW1           1 RES     
   10276 HW2         27.6660    -1.7690   -61.0230 HW2           1 RES     
   10277 OW           4.0980    42.7190   -69.6180 OW            1 RES     
   10278 HW1          3.8450    43.3130   -68.8550 HW1           1 RES     
   10279 HW2          4.1570    43.2610   -70.4570 HW2           1 RES     
   10280 OW          28.5400    36.6690   -61.8010 OW            1 RES     
   10281 HW1         28.3330    35.6910   -61.7920 HW1           1 RES     
   10282 HW2         29.5250    36.8010   -61.9200 HW2           1 RES     
   10283 OW          -4.0150     7.5470   -65.1530 OW            1 RES     
   10284 HW1         -3.8940     7.6240   -64.1640 HW1           1 RES     
   10285 HW2         -4.9570     7.7820   -65.3930 HW2           1 RES     
   10286 OW           1.9130    24.5570   -73.6760 OW            1 RES     
   10287 HW1          2.2280    25.1840   -72.9650 HW1           1 RES     
   10288 HW2          1.0930    24.0790   -73.3610 HW2           1 RES     
   10289 OW          -6.1960    29.1590   -67.0820 OW            1 RES     
   10290 HW1         -6.7720    29.9760   -67.0870 HW1           1 RES     
   10291 HW2         -6.7710    28.3460   -66.9900 HW2           1 RES     
   10292 OW           0.2020     2.0490   -68.7760 OW            1 RES     
   10293 HW1          0.4810     1.1600   -68.4160 HW1           1 RES     
   10294 HW2         -0.7380     1.9920   -69.1140 HW2           1 RES     
   10295 OW          15.8340     7.2690   -64.2170 OW            1 RES     
   10296 HW1         15.0920     6.6010   -64.1830 HW1           1 RES     
   10297 HW2         16.2210     7.2920   -65.1390 HW2           1 RES     
   10298 OW          33.2640    37.2940   -67.7690 OW            1 RES     
   10299 HW1         33.1850    38.2900   -67.7650 HW1           1 RES     
   10300 HW2         32.3600    36.8870   -67.6330 HW2           1 RES     
   10301 OW          31.3820     5.0660   -61.2730 OW            1 RES     
   10302 HW1         31.1210     5.4150   -60.3740 HW1           1 RES     
   10303 HW2         30.7440     4.3470   -61.5500 HW2           1 RES     
   10304 OW          39.7940    22.9290   -74.0390 OW            1 RES     
   10305 HW1         40.1090    22.6560   -73.1310 HW1           1 RES     
   10306 HW2         39.4880    23.8810   -74.0140 HW2           1 RES     
   10307 OW          22.7320    30.9410   -66.1940 OW            1 RES     
   10308 HW1         23.5010    30.3160   -66.3220 HW1           1 RES     
   10309 HW2         22.5260    31.0210   -65.2180 HW2           1 RES     
   10310 OW          -0.4850    20.9800   -64.8270 OW            1 RES     
   10311 HW1         -1.3040    20.4260   -64.9730 HW1           1 RES     
   10312 HW2         -0.7480    21.9360   -64.6960 HW2           1 RES     
   10313 OW          34.0930    41.7260   -72.1550 OW            1 RES     
   10314 HW1         33.3450    41.0650   -72.1960 HW1           1 RES     
   10315 HW2         33.7180    42.6520   -72.0960 HW2           1 RES     
   10316 OW          20.6370    31.5650   -68.4990 OW            1 RES     
   10317 HW1         21.4490    31.3640   -69.0450 HW1           1 RES     
   10318 HW2         19.9960    30.8000   -68.5600 HW2           1 RES     
   10319 OW           8.2410    30.2210   -68.0510 OW            1 RES     
   10320 HW1          8.2410    30.4550   -69.0230 HW1           1 RES     
   10321 HW2          8.4930    29.2600   -67.9390 HW2           1 RES     
   10322 OW          44.0450    22.1480   -65.2370 OW            1 RES     
   10323 HW1         44.2010    22.9310   -65.8390 HW1           1 RES     
   10324 HW2         43.2660    21.6180   -65.5730 HW2           1 RES     
   10325 OW          38.9170     1.3070   -63.2270 OW            1 RES     
   10326 HW1         38.2010     1.9930   -63.1070 HW1           1 RES     
   10327 HW2         39.8000     1.7630   -63.3470 HW2           1 RES     
   10328 OW          30.4050    26.9560   -63.5650 OW            1 RES     
   10329 HW1         29.5210    27.2770   -63.9030 HW1           1 RES     
   10330 HW2         31.1380    27.4850   -63.9910 HW2           1 RES     
   10331 OW          -1.8080    23.3830   -59.4660 OW            1 RES     
   10332 HW1         -1.7030    24.3620   -59.6350 HW1           1 RES     
   10333 HW2         -2.7810    23.1550   -59.4170 HW2           1 RES     
   10334 OW          28.7450    40.2850   -69.5510 OW            1 RES     
   10335 HW1         29.2400    41.1510   -69.6140 HW1           1 RES     
   10336 HW2         27.7930    40.4610   -69.3020 HW2           1 RES     
   10337 OW          -2.1870    11.9080   -67.3240 OW            1 RES     
   10338 HW1         -2.2830    12.6790   -66.6950 HW1           1 RES     
   10339 HW2         -1.3200    11.4400   -67.1480 HW2           1 RES     
   10340 OW          25.8090    42.4180   -63.7120 OW            1 RES     
   10341 HW1         25.4210    43.3050   -63.9640 HW1           1 RES     
   10342 HW2         25.8210    42.3300   -62.7160 HW2           1 RES     
   10343 OW          42.6140    32.8860   -65.1800 OW            1 RES     
   10344 HW1         42.7830    32.2750   -64.4070 HW1           1 RES     
   10345 HW2         43.3480    33.5620   -65.2380 HW2           1 RES     
   10346 OW          45.1090    32.8990   -61.8380 OW            1 RES     
   10347 HW1         44.5200    33.6860   -62.0170 HW1           1 RES     
   10348 HW2         44.5450    32.0850   -61.6950 HW2           1 RES     
   10349 OW          17.8020    16.2600   -68.9540 OW            1 RES     
   10350 HW1         17.7250    17.2520   -69.0490 HW1           1 RES     
   10351 HW2         16.8890    15.8520   -68.9570 HW2           1 RES     
   10352 OW          33.1420    31.1190   -69.3370 OW            1 RES     
   10353 HW1         33.6350    31.9490   -69.5970 HW1           1 RES     
   10354 HW2         32.4260    31.3490   -68.6780 HW2           1 RES     
   10355 OW          -3.6930    43.3010   -60.1800 OW            1 RES     
   10356 HW1         -2.7850    43.3140   -60.5950 HW1           1 RES     
   10357 HW2         -4.2850    42.6750   -60.6900 HW2           1 RES     
   10358 OW          36.3500    37.8850   -72.3730 OW            1 RES     
   10359 HW1         36.7530    38.7980   -72.3300 HW1           1 RES     
   10360 HW2         36.6660    37.3430   -71.5940 HW2           1 RES     
   10361 OW          33.0280    17.2180   -60.1880 OW            1 RES     
   10362 HW1         32.8630    18.2040   -60.1760 HW1           1 RES     
   10363 HW2         34.0120    17.0450   -60.2390 HW2           1 RES     
   10364 OW          42.7540     7.0530   -65.7440 OW            1 RES     
   10365 HW1         43.1270     7.5410   -64.9560 HW1           1 RES     
   10366 HW2         43.3400     6.2710   -65.9600 HW2           1 RES     
   10367 OW          28.2840    21.0090   -73.2080 OW            1 RES     
   10368 HW1         27.7260    20.9840   -74.0370 HW1           1 RES     
   10369 HW2         27.7550    21.4160   -72.4630 HW2           1 RES     
   10370 OW          42.7260    -4.0530   -63.0260 OW            1 RES     
   10371 HW1         42.5110    -3.0800   -63.0990 HW1           1 RES     
   10372 HW2         43.7080    -4.1670   -62.8700 HW2           1 RES     
   10373 OW          30.1040    30.4480   -60.9610 OW            1 RES     
   10374 HW1         29.2080    30.0660   -60.7340 HW1           1 RES     
   10375 HW2         30.4370    30.9970   -60.1940 HW2           1 RES     
   10376 OW          42.7300    26.0800   -74.0360 OW            1 RES     
   10377 HW1         43.7120    26.1170   -73.8500 HW1           1 RES     
   10378 HW2         42.3240    25.3150   -73.5370 HW2           1 RES     
   10379 OW          17.0360    13.9090   -73.5010 OW            1 RES     
   10380 HW1         17.1150    13.5120   -72.5870 HW1           1 RES     
   10381 HW2         17.8450    13.6720   -74.0390 HW2           1 RES     
   10382 OW          20.7770     7.0730   -63.2740 OW            1 RES     
   10383 HW1         21.1830     7.7350   -62.6440 HW1           1 RES     
   10384 HW2         21.4240     6.8730   -64.0100 HW2           1 RES     
   10385 OW          43.7290    37.5950   -66.8010 OW            1 RES     
   10386 HW1         44.2680    36.9720   -66.2360 HW1           1 RES     
   10387 HW2         44.0120    37.5080   -67.7570 HW2           1 RES     
   10388 OW          37.1010    36.3640   -73.7940 OW            1 RES     
   10389 HW1         37.5280    35.8590   -73.0450 HW1           1 RES     
   10390 HW2         36.1970    35.9800   -73.9840 HW2           1 RES     
   10391 OW          -6.7730    10.0760   -67.5960 OW            1 RES     
   10392 HW1         -6.0510    10.7650   -67.6460 HW1           1 RES     
   10393 HW2         -6.3630     9.1630   -67.5880 HW2           1 RES     
   10394 OW          31.1790     9.4080   -67.3150 OW            1 RES     
   10395 HW1         30.3110     9.6800   -66.9000 HW1           1 RES     
   10396 HW2         31.5950     8.6790   -66.7720 HW2           1 RES     
   10397 OW          15.0540    35.6420   -60.8480 OW            1 RES     
   10398 HW1         16.0410    35.7600   -60.9510 HW1           1 RES     
   10399 HW2         14.6790    35.2290   -61.6790 HW2           1 RES     
   10400 OW           8.3530    14.1030   -63.7590 OW            1 RES     
   10401 HW1          8.6910    14.4600   -62.8890 HW1           1 RES     
   10402 HW2          8.8720    13.2850   -64.0080 HW2           1 RES     
   10403 OW          18.2270    22.1570   -68.2270 OW            1 RES     
   10404 HW1         17.5690    22.4530   -67.5360 HW1           1 RES     
   10405 HW2         18.4120    21.1810   -68.1150 HW2           1 RES     
   10406 OW          26.2140    28.9710   -71.3060 OW            1 RES     
   10407 HW1         25.8310    29.7560   -71.7910 HW1           1 RES     
   10408 HW2         25.5620    28.6530   -70.6180 HW2           1 RES     
   10409 OW          34.8930    43.3140   -60.3330 OW            1 RES     
   10410 HW1         35.5070    42.9120   -61.0120 HW1           1 RES     
   10411 HW2         34.5050    42.5890   -59.7640 HW2           1 RES     
   10412 OW          26.8410     1.7570   -62.7300 OW            1 RES     
   10413 HW1         27.6540     1.7980   -63.3100 HW1           1 RES     
   10414 HW2         26.3160     0.9350   -62.9490 HW2           1 RES     
   10415 OW           5.1590    32.4180   -61.4560 OW            1 RES     
   10416 HW1          4.4460    33.0370   -61.7830 HW1           1 RES     
   10417 HW2          6.0350    32.6740   -61.8660 HW2           1 RES     
   10418 OW           8.5430    13.7420   -68.0870 OW            1 RES     
   10419 HW1          8.0990    14.2070   -67.3220 HW1           1 RES     
   10420 HW2          8.0700    12.8800   -68.2730 HW2           1 RES     
   10421 OW          42.0350    15.6020   -63.7700 OW            1 RES     
   10422 HW1         41.7770    16.5670   -63.7350 HW1           1 RES     
   10423 HW2         41.8170    15.2300   -64.6730 HW2           1 RES     
   10424 OW          29.7320    24.7640   -59.1230 OW            1 RES     
   10425 HW1         29.8270    25.7590   -59.1200 HW1           1 RES     
   10426 HW2         30.5980    24.3460   -59.3960 HW2           1 RES     
   10427 OW          26.2750     4.2440   -64.1040 OW            1 RES     
   10428 HW1         25.7140     3.4170   -64.0980 HW1           1 RES     
   10429 HW2         25.6870     5.0450   -64.2160 HW2           1 RES     
   10430 OW          -3.7120    10.1470   -66.6420 OW            1 RES     
   10431 HW1         -3.6600    10.3030   -67.6280 HW1           1 RES     
   10432 HW2         -4.5740     9.6890   -66.4210 HW2           1 RES     
   10433 OW          33.6640     2.2520   -62.4400 OW            1 RES     
   10434 HW1         34.2040     1.4470   -62.6860 HW1           1 RES     
   10435 HW2         33.1240     2.0550   -61.6220 HW2           1 RES     
   10436 OW          15.0770    -2.7250   -71.3400 OW            1 RES     
   10437 HW1         16.0360    -2.4490   -71.3960 HW1           1 RES     
   10438 HW2         14.8000    -2.7750   -70.3810 HW2           1 RES     
   10439 OW          41.1000    32.9920   -61.7780 OW            1 RES     
   10440 HW1         40.1320    33.1970   -61.9140 HW1           1 RES     
   10441 HW2         41.4530    33.5370   -61.0160 HW2           1 RES     
   10442 OW          12.3090    16.4110   -60.5600 OW            1 RES     
   10443 HW1         11.4850    16.6650   -60.0540 HW1           1 RES     
   10444 HW2         12.0570    16.1090   -61.4790 HW2           1 RES     
   10445 OW          -4.9740    32.3210   -68.1940 OW            1 RES     
   10446 HW1         -5.4630    32.5290   -69.0400 HW1           1 RES     
   10447 HW2         -4.0370    32.0440   -68.4100 HW2           1 RES     
   10448 OW          -5.5820    24.1330   -65.7330 OW            1 RES     
   10449 HW1         -6.5460    24.3220   -65.5480 HW1           1 RES     
   10450 HW2         -5.0600    24.9850   -65.6870 HW2           1 RES     
   10451 OW          21.1290    39.0520   -62.8320 OW            1 RES     
   10452 HW1         21.3060    38.8420   -61.8710 HW1           1 RES     
   10453 HW2         21.9920    39.2620   -63.2920 HW2           1 RES     
   10454 OW          38.8070    -3.3260   -66.1700 OW            1 RES     
   10455 HW1         38.5790    -3.1040   -67.1170 HW1           1 RES     
   10456 HW2         38.7480    -4.3160   -66.0370 HW2           1 RES     
   10457 OW          40.7890     4.4560   -69.0810 OW            1 RES     
   10458 HW1         39.9540     3.9110   -69.1480 HW1           1 RES     
   10459 HW2         41.5850     3.8490   -69.0760 HW2           1 RES     
   10460 OW          14.8100    36.5140   -71.9030 OW            1 RES     
   10461 HW1         14.2770    35.6740   -72.0020 HW1           1 RES     
   10462 HW2         14.2030    37.3050   -71.9840 HW2           1 RES     
   10463 OW          45.1080    20.3940   -66.5030 OW            1 RES     
   10464 HW1         44.8070    21.1570   -67.0740 HW1           1 RES     
   10465 HW2         44.3230    19.8190   -66.2730 HW2           1 RES     
   10466 OW          28.2620    12.8090   -63.4770 OW            1 RES     
   10467 HW1         27.3070    13.0610   -63.3200 HW1           1 RES     
   10468 HW2         28.7260    13.5470   -63.9660 HW2           1 RES     
   10469 OW          42.3740    37.1840   -73.1200 OW            1 RES     
   10470 HW1         41.8220    37.7340   -72.4940 HW1           1 RES     
   10471 HW2         42.0120    36.2520   -73.1540 HW2           1 RES     
   10472 OW           7.3580    30.9630   -71.0530 OW            1 RES     
   10473 HW1          7.4270    31.8150   -71.5700 HW1           1 RES     
   10474 HW2          8.1700    30.4040   -71.2210 HW2           1 RES     
   10475 OW           8.5990     8.0500   -66.5770 OW            1 RES     
   10476 HW1          9.5910     7.9720   -66.6750 HW1           1 RES     
   10477 HW2          8.3360     9.0150   -66.6020 HW2           1 RES     
   10478 OW          24.9860    19.9740   -67.5260 OW            1 RES     
   10479 HW1         25.5400    20.7170   -67.9010 HW1           1 RES     
   10480 HW2         25.4720    19.5480   -66.7620 HW2           1 RES     
   10481 OW          -0.7920    28.5750   -62.0270 OW            1 RES     
   10482 HW1         -0.1670    28.6430   -62.8050 HW1           1 RES     
   10483 HW2         -1.5660    29.1930   -62.1670 HW2           1 RES     
   10484 OW          16.4730    31.1590   -64.2130 OW            1 RES     
   10485 HW1         15.8870    30.5190   -63.7160 HW1           1 RES     
   10486 HW2         17.0280    31.6780   -63.5630 HW2           1 RES     
   10487 OW           8.7680    10.5710   -68.6330 OW            1 RES     
   10488 HW1          8.1170    10.8950   -69.3180 HW1           1 RES     
   10489 HW2          9.5690    11.1700   -68.6230 HW2           1 RES     
   10490 OW          36.3490    27.9440   -59.2390 OW            1 RES     
   10491 HW1         36.6320    28.8930   -59.1020 HW1           1 RES     
   10492 HW2         35.5890    27.9130   -59.8890 HW2           1 RES     
   10493 OW          35.1040     7.4610   -73.0070 OW            1 RES     
   10494 HW1         35.3360     6.5400   -72.6960 HW1           1 RES     
   10495 HW2         35.9160     8.0430   -72.9640 HW2           1 RES     
   10496 OW           1.2700    42.3190   -69.3750 OW            1 RES     
   10497 HW1          1.1770    43.3130   -69.3390 HW1           1 RES     
   10498 HW2          2.0540    42.0370   -68.8210 HW2           1 RES     
   10499 OW          26.5620    -1.2430   -59.1940 OW            1 RES     
   10500 HW1         27.4570    -1.1960   -58.7510 HW1           1 RES     
   10501 HW2         26.2640    -0.3220   -59.4430 HW2           1 RES     
   10502 OW          38.7600     4.7100   -64.8830 OW            1 RES     
   10503 HW1         38.8070     3.8030   -65.3010 HW1           1 RES     
   10504 HW2         39.4570     4.7860   -64.1700 HW2           1 RES     
   10505 OW          -5.9010    25.8590   -58.9520 OW            1 RES     
   10506 HW1         -6.2090    24.9970   -58.5510 HW1           1 RES     
   10507 HW2         -4.9020    25.9030   -58.9200 HW2           1 RES     
   10508 OW          14.3160     9.8240   -69.6910 OW            1 RES     
   10509 HW1         13.7500    10.5580   -69.3180 HW1           1 RES     
   10510 HW2         15.2080     9.8270   -69.2380 HW2           1 RES     
   10511 OW          -1.6100    21.2640   -72.0810 OW            1 RES     
   10512 HW1         -1.4420    22.1480   -72.5160 HW1           1 RES     
   10513 HW2         -2.3140    20.7680   -72.5920 HW2           1 RES     
   10514 OW          34.2320     6.1580   -60.0020 OW            1 RES     
   10515 HW1         33.4060     5.7780   -60.4160 HW1           1 RES     
   10516 HW2         34.8430     6.4930   -60.7200 HW2           1 RES     
   10517 OW          37.8100    15.8330   -73.0220 OW            1 RES     
   10518 HW1         37.7230    15.9420   -74.0120 HW1           1 RES     
   10519 HW2         37.7230    16.7260   -72.5790 HW2           1 RES     
   10520 OW          41.3010    29.7650   -73.2170 OW            1 RES     
   10521 HW1         40.6260    30.2060   -73.8070 HW1           1 RES     
   10522 HW2         40.8480    29.0840   -72.6420 HW2           1 RES     
   10523 OW           4.8520     4.9790   -65.5270 OW            1 RES     
   10524 HW1          4.6720     5.7570   -64.9260 HW1           1 RES     
   10525 HW2          4.4900     4.1450   -65.1100 HW2           1 RES     
   10526 OW          -5.9730    15.2510   -66.3840 OW            1 RES     
   10527 HW1         -6.4150    16.1450   -66.4490 HW1           1 RES     
   10528 HW2         -6.6690    14.5410   -66.2810 HW2           1 RES     
   10529 OW          -6.6330    17.0930   -68.8790 OW            1 RES     
   10530 HW1         -6.7730    17.6200   -68.0420 HW1           1 RES     
   10531 HW2         -6.4940    16.1300   -68.6480 HW2           1 RES     
   10532 OW          41.8450     2.8390   -65.6290 OW            1 RES     
   10533 HW1         42.4950     2.1050   -65.8210 HW1           1 RES     
   10534 HW2         40.9160     2.4690   -65.6220 HW2           1 RES     
   10535 OW          14.7400    10.3550   -63.4160 OW            1 RES     
   10536 HW1         14.9910    10.7830   -64.2830 HW1           1 RES     
   10537 HW2         15.1640    10.8550   -62.6600 HW2           1 RES     
   10538 OW          43.6860    14.0230   -64.5840 OW            1 RES     
   10539 HW1         44.6810    13.9380   -64.5550 HW1           1 RES     
   10540 HW2         43.2720    13.1120   -64.5620 HW2           1 RES     
   10541 OW           0.2250    28.9100   -60.1050 OW            1 RES     
   10542 HW1         -0.5720    29.4960   -59.9670 HW1           1 RES     
   10543 HW2          1.0320    29.4760   -60.2740 HW2           1 RES     
   10544 OW          19.2320    -3.9120   -70.6710 OW            1 RES     
   10545 HW1         19.5200    -2.9540   -70.6530 HW1           1 RES     
   10546 HW2         18.2330    -3.9600   -70.6820 HW2           1 RES     
   10547 OW          38.6440    12.8580   -65.3320 OW            1 RES     
   10548 HW1         38.8430    13.8320   -65.2260 HW1           1 RES     
   10549 HW2         39.4880    12.3320   -65.2280 HW2           1 RES     
   10550 OW          18.4430    40.0450   -70.4170 OW            1 RES     
   10551 HW1         18.5610    39.0680   -70.5900 HW1           1 RES     
   10552 HW2         19.3180    40.4420   -70.1380 HW2           1 RES     
   10553 OW          10.8440     7.7600   -59.1160 OW            1 RES     
   10554 HW1         10.3320     8.4070   -58.5510 HW1           1 RES     
   10555 HW2         11.7450     7.6050   -58.7130 HW2           1 RES     
   10556 OW          19.7200    12.8690   -69.1540 OW            1 RES     
   10557 HW1         18.9560    13.4450   -68.8640 HW1           1 RES     
   10558 HW2         19.3910    11.9430   -69.3370 HW2           1 RES     
   10559 OW           5.9420     3.8180   -72.7380 OW            1 RES     
   10560 HW1          6.5530     4.1120   -72.0030 HW1           1 RES     
   10561 HW2          6.4000     3.9360   -73.6190 HW2           1 RES     
   10562 OW          10.0110     1.1830   -71.8520 OW            1 RES     
   10563 HW1         10.0860     2.0250   -71.3180 HW1           1 RES     
   10564 HW2          9.0520     1.0190   -72.0830 HW2           1 RES     
   10565 OW          43.6000    40.7100   -61.7720 OW            1 RES     
   10566 HW1         42.6090    40.7280   -61.9020 HW1           1 RES     
   10567 HW2         43.8560    41.3650   -61.0610 HW2           1 RES     
   10568 OW           0.1820    15.3190   -63.9010 OW            1 RES     
   10569 HW1          0.2790    14.3400   -63.7270 HW1           1 RES     
   10570 HW2         -0.6280    15.4800   -64.4650 HW2           1 RES     
   10571 OW          11.1400    -3.1920   -62.8780 OW            1 RES     
   10572 HW1         11.9420    -3.7360   -63.1220 HW1           1 RES     
   10573 HW2         11.3810    -2.2210   -62.8820 HW2           1 RES     
   10574 OW          39.5620    10.5800   -62.7700 OW            1 RES     
   10575 HW1         39.3640    11.4580   -63.2050 HW1           1 RES     
   10576 HW2         39.2210     9.8370   -63.3470 HW2           1 RES     
   10577 OW          24.9460    28.3370   -61.3220 OW            1 RES     
   10578 HW1         25.4340    28.2360   -60.4560 HW1           1 RES     
   10579 HW2         25.6050    28.4650   -62.0640 HW2           1 RES     
   10580 OW          21.6790    29.2450   -68.5000 OW            1 RES     
   10581 HW1         21.6100    29.6320   -67.5810 HW1           1 RES     
   10582 HW2         21.5730    28.2510   -68.4530 HW2           1 RES     
   10583 OW          -4.9420    30.9320   -62.8780 OW            1 RES     
   10584 HW1         -4.3390    31.4460   -62.2690 HW1           1 RES     
   10585 HW2         -4.5160    30.8510   -63.7790 HW2           1 RES     
   10586 OW          30.9910    30.1850   -63.3410 OW            1 RES     
   10587 HW1         31.6440    29.6260   -63.8520 HW1           1 RES     
   10588 HW2         30.2380    29.6100   -63.0210 HW2           1 RES     
   10589 OW           0.9770    37.9060   -73.8810 OW            1 RES     
   10590 HW1          0.6650    36.9700   -74.0390 HW1           1 RES     
   10591 HW2          1.3170    37.9910   -72.9440 HW2           1 RES     
   10592 OW           5.5220    17.5390   -65.5010 OW            1 RES     
   10593 HW1          6.3190    17.1480   -65.9610 HW1           1 RES     
   10594 HW2          4.6930    17.0850   -65.8260 HW2           1 RES     
   10595 OW          20.4090    35.7510   -69.2630 OW            1 RES     
   10596 HW1         21.4050    35.8240   -69.3050 HW1           1 RES     
   10597 HW2         20.0240    36.6170   -68.9440 HW2           1 RES     
   10598 OW           0.4590     4.4690   -62.2490 OW            1 RES     
   10599 HW1          1.4240     4.6790   -62.4050 HW1           1 RES     
   10600 HW2          0.1210     5.0080   -61.4770 HW2           1 RES     
   10601 OW          10.6700     9.4950   -65.3910 OW            1 RES     
   10602 HW1         11.4980    10.0490   -65.3130 HW1           1 RES     
   10603 HW2          9.8710    10.0940   -65.4530 HW2           1 RES     
   10604 OW          24.6080    26.9770   -63.7220 OW            1 RES     
   10605 HW1         25.2960    27.6130   -64.0700 HW1           1 RES     
   10606 HW2         23.9630    27.4690   -63.1380 HW2           1 RES     
   10607 OW          19.3160    14.8890   -58.6170 OW            1 RES     
   10608 HW1         20.0300    14.1920   -58.5520 HW1           1 RES     
   10609 HW2         18.4230    14.4450   -58.6970 HW2           1 RES     
   10610 OW          12.8000    37.8530   -70.3790 OW            1 RES     
   10611 HW1         12.3440    36.9730   -70.2520 HW1           1 RES     
   10612 HW2         12.1180    38.5850   -70.3810 HW2           1 RES     
   10613 OW          10.5210    25.3650   -59.3100 OW            1 RES     
   10614 HW1         10.3670    26.2980   -58.9870 HW1           1 RES     
   10615 HW2         11.3660    25.0080   -58.9100 HW2           1 RES     
   10616 OW          -3.8430    30.5180   -58.6920 OW            1 RES     
   10617 HW1         -4.7910    30.2040   -58.7080 HW1           1 RES     
   10618 HW2         -3.8220    31.5180   -58.7130 HW2           1 RES     
   10619 OW          30.8590    14.6020   -72.5100 OW            1 RES     
   10620 HW1         31.5700    14.1260   -73.0260 HW1           1 RES     
   10621 HW2         30.7840    14.2010   -71.5970 HW2           1 RES     
   10622 OW          -2.0220    33.9870   -67.3080 OW            1 RES     
   10623 HW1         -2.4160    34.9040   -67.3540 HW1           1 RES     
   10624 HW2         -1.0360    34.0380   -67.4700 HW2           1 RES     
   10625 OW          23.6320    -2.9550   -66.4310 OW            1 RES     
   10626 HW1         23.6790    -3.9520   -66.4730 HW1           1 RES     
   10627 HW2         24.4470    -2.5640   -66.8590 HW2           1 RES     
   10628 OW          15.6650    31.5370   -66.8500 OW            1 RES     
   10629 HW1         16.2290    32.0750   -66.2250 HW1           1 RES     
   10630 HW2         16.1360    31.4410   -67.7270 HW2           1 RES     
   10631 OW          27.1520    43.1230   -69.5820 OW            1 RES     
   10632 HW1         26.7080    42.2940   -69.9210 HW1           1 RES     
   10633 HW2         27.9150    42.8740   -68.9850 HW2           1 RES     
   10634 OW          40.1610    36.5610   -61.1670 OW            1 RES     
   10635 HW1         40.1170    37.5560   -61.2500 HW1           1 RES     
   10636 HW2         41.0670    36.2940   -60.8360 HW2           1 RES     
   10637 OW          23.4110    32.7040   -61.4500 OW            1 RES     
   10638 HW1         24.0140    31.9220   -61.2990 HW1           1 RES     
   10639 HW2         23.9160    33.4290   -61.9190 HW2           1 RES     
   10640 OW          22.5700    13.4130   -69.1360 OW            1 RES     
   10641 HW1         23.3140    13.9190   -69.5710 HW1           1 RES     
   10642 HW2         22.0840    12.8750   -69.8250 HW2           1 RES     
   10643 OW           6.2980    13.7270   -70.0550 OW            1 RES     
   10644 HW1          5.3360    13.9470   -70.2090 HW1           1 RES     
   10645 HW2          6.3980    12.7400   -69.9230 HW2           1 RES     
   10646 OW          43.6970    42.2970   -73.4090 OW            1 RES     
   10647 HW1         44.4660    42.4090   -74.0380 HW1           1 RES     
   10648 HW2         43.1300    43.1200   -73.4240 HW2           1 RES     
   10649 OW          22.6270    33.3630   -68.9520 OW            1 RES     
   10650 HW1         22.9940    34.2520   -69.2240 HW1           1 RES     
   10651 HW2         23.3800    32.7350   -68.7580 HW2           1 RES     
   10652 OW          21.2740    13.7650   -71.8310 OW            1 RES     
   10653 HW1         21.9570    14.3740   -71.4300 HW1           1 RES     
   10654 HW2         21.6810    12.8650   -71.9900 HW2           1 RES     
   10655 OW          25.2810    -3.2690   -60.9810 OW            1 RES     
   10656 HW1         25.0110    -4.0460   -61.5480 HW1           1 RES     
   10657 HW2         25.1280    -2.4180   -61.4850 HW2           1 RES     
   10658 OW          19.5090    -3.0320   -67.2580 OW            1 RES     
   10659 HW1         19.9460    -3.1340   -68.1510 HW1           1 RES     
   10660 HW2         19.3700    -2.0610   -67.0640 HW2           1 RES     
   10661 OW          29.6650    22.1160   -65.8430 OW            1 RES     
   10662 HW1         29.0840    22.8720   -66.1450 HW1           1 RES     
   10663 HW2         29.2210    21.6360   -65.0860 HW2           1 RES     
   10664 OW          42.2630    31.7260   -60.0090 OW            1 RES     
   10665 HW1         43.0800    32.2960   -59.9290 HW1           1 RES     
   10666 HW2         42.5200    30.7620   -59.9430 HW2           1 RES     
   10667 OW          18.3400    26.2450   -66.3880 OW            1 RES     
   10668 HW1         19.1630    25.6810   -66.3290 HW1           1 RES     
   10669 HW2         17.5310    25.6570   -66.3720 HW2           1 RES     
   10670 OW          -3.3350    42.6920   -69.9030 OW            1 RES     
   10671 HW1         -2.4140    43.0330   -70.0910 HW1           1 RES     
   10672 HW2         -3.7720    43.2710   -69.2140 HW2           1 RES     
   10673 OW          37.4170    16.5690   -61.0680 OW            1 RES     
   10674 HW1         37.7170    17.5180   -61.1600 HW1           1 RES     
   10675 HW2         38.1790    15.9560   -61.2810 HW2           1 RES     
   10676 OW          19.0190    20.8870   -70.7600 OW            1 RES     
   10677 HW1         19.9550    20.5370   -70.7920 HW1           1 RES     
   10678 HW2         19.0340    21.8860   -70.8090 HW2           1 RES     
   10679 OW          10.0970    14.8940   -61.2320 OW            1 RES     
   10680 HW1          9.8740    15.8230   -61.5250 HW1           1 RES     
   10681 HW2         10.1350    14.8590   -60.2330 HW2           1 RES     
   10682 OW          35.7740    22.2220   -61.4620 OW            1 RES     
   10683 HW1         35.8450    22.3620   -62.4490 HW1           1 RES     
   10684 HW2         35.6960    21.2440   -61.2690 HW2           1 RES     
   10685 OW           1.4540     7.7940   -61.8710 OW            1 RES     
   10686 HW1          0.9380     7.0520   -61.4450 HW1           1 RES     
   10687 HW2          0.8200     8.4440   -62.2900 HW2           1 RES     
   10688 OW          42.5690     1.1050   -69.7180 OW            1 RES     
   10689 HW1         42.6510     2.0890   -69.8760 HW1           1 RES     
   10690 HW2         43.4810     0.7040   -69.6320 HW2           1 RES     
   10691 OW          -4.1360    26.1140   -71.1110 OW            1 RES     
   10692 HW1         -4.5190    26.2070   -72.0290 HW1           1 RES     
   10693 HW2         -3.7080    25.2140   -71.0180 HW2           1 RES     
   10694 OW          43.8620     8.1450   -67.6760 OW            1 RES     
   10695 HW1         44.5090     8.0470   -66.9210 HW1           1 RES     
   10696 HW2         43.5030     7.2460   -67.9260 HW2           1 RES     
   10697 OW          -6.7720    -0.7280   -63.7840 OW            1 RES     
   10698 HW1         -5.9590    -0.5730   -63.2240 HW1           1 RES     
   10699 HW2         -6.5550    -0.5510   -64.7440 HW2           1 RES     
   10700 OW          -4.5180    29.0710   -72.1140 OW            1 RES     
   10701 HW1         -3.8800    28.3450   -72.3680 HW1           1 RES     
   10702 HW2         -5.4350    28.6870   -72.0040 HW2           1 RES     
   10703 OW          14.5700    22.8680   -60.3210 OW            1 RES     
   10704 HW1         13.7170    22.3490   -60.2760 HW1           1 RES     
   10705 HW2         15.3420    22.2370   -60.3950 HW2           1 RES     
   10706 OW          37.7640    22.9610   -59.5660 OW            1 RES     
   10707 HW1         38.1740    22.0500   -59.5360 HW1           1 RES     
   10708 HW2         36.7680    22.8780   -59.6080 HW2           1 RES     
   10709 OW          13.6310     0.2800   -71.1500 OW            1 RES     
   10710 HW1         13.0050    -0.3050   -70.6360 HW1           1 RES     
   10711 HW2         13.5930     1.2110   -70.7870 HW2           1 RES     
   10712 OW          39.7200     7.7010   -62.2610 OW            1 RES     
   10713 HW1         40.2860     6.8770   -62.2500 HW1           1 RES     
   10714 HW2         38.7540     7.4420   -62.2790 HW2           1 RES     
   10715 OW          31.0850     9.6340   -71.5780 OW            1 RES     
   10716 HW1         31.1960     8.8420   -72.1770 HW1           1 RES     
   10717 HW2         30.9210    10.4510   -72.1310 HW2           1 RES     
   10718 OW          18.0200    -2.1680   -68.9050 OW            1 RES     
   10719 HW1         18.7430    -1.5280   -69.1600 HW1           1 RES     
   10720 HW2         17.3510    -2.2290   -69.6460 HW2           1 RES     
   10721 OW          21.3860    19.3700   -63.0360 OW            1 RES     
   10722 HW1         21.0670    19.5510   -62.1070 HW1           1 RES     
   10723 HW2         21.6140    20.2340   -63.4850 HW2           1 RES     
   10724 OW           4.4580    14.3520   -58.5530 OW            1 RES     
   10725 HW1          4.9120    15.2070   -58.8020 HW1           1 RES     
   10726 HW2          4.9680    13.5800   -58.9320 HW2           1 RES     
   10727 OW          35.3850    28.8660   -67.7330 OW            1 RES     
   10728 HW1         35.1140    29.3100   -68.5870 HW1           1 RES     
   10729 HW2         36.3560    28.6280   -67.7750 HW2           1 RES     
   10730 OW          13.6330    28.3460   -58.8640 OW            1 RES     
   10731 HW1         12.9780    27.6590   -58.5510 HW1           1 RES     
   10732 HW2         14.4840    27.8970   -59.1380 HW2           1 RES     
   10733 OW          12.5110    24.9490   -61.6050 OW            1 RES     
   10734 HW1         13.2970    24.4560   -61.2340 HW1           1 RES     
   10735 HW2         12.3330    24.6400   -62.5390 HW2           1 RES     
   10736 OW          26.8740    30.7050   -66.0220 OW            1 RES     
   10737 HW1         26.0570    30.6620   -65.4480 HW1           1 RES     
   10738 HW2         27.6850    30.5380   -65.4620 HW2           1 RES     
   10739 OW          34.3350    33.8340   -61.3570 OW            1 RES     
   10740 HW1         35.1110    34.4140   -61.6010 HW1           1 RES     
   10741 HW2         34.5750    33.2700   -60.5670 HW2           1 RES     
   10742 OW          36.4420    35.5740   -59.0950 OW            1 RES     
   10743 HW1         37.3510    35.1930   -59.2630 HW1           1 RES     
   10744 HW2         35.7580    35.0330   -59.5850 HW2           1 RES     
   10745 OW          44.6960    35.8750   -70.7080 OW            1 RES     
   10746 HW1         43.8200    35.4830   -70.9880 HW1           1 RES     
   10747 HW2         45.1090    35.2990   -70.0020 HW2           1 RES     
   10748 OW          10.1220    35.6870   -64.6210 OW            1 RES     
   10749 HW1         11.0820    35.8930   -64.8070 HW1           1 RES     
   10750 HW2          9.8130    34.9570   -65.2320 HW2           1 RES     
   10751 OW          10.5770    -4.3150   -68.2670 OW            1 RES     
   10752 HW1         10.1150    -3.4290   -68.2790 HW1           1 RES     
   10753 HW2         11.5220    -4.2030   -68.5760 HW2           1 RES     
   10754 OW          44.9750    11.6850   -70.3140 OW            1 RES     
   10755 HW1         45.0770    10.7800   -70.7260 HW1           1 RES     
   10756 HW2         44.0250    11.9850   -70.3980 HW2           1 RES     
   10757 OW          18.7040    35.9830   -59.7370 OW            1 RES     
   10758 HW1         19.3880    36.5090   -60.2420 HW1           1 RES     
   10759 HW2         19.0930    35.6790   -58.8670 HW2           1 RES     
   10760 OW          28.2310     4.9730   -63.3150 OW            1 RES     
   10761 HW1         28.4060     4.0070   -63.1320 HW1           1 RES     
   10762 HW2         29.0150     5.5170   -63.0150 HW2           1 RES     
   10763 OW          22.7840     2.2360   -73.0630 OW            1 RES     
   10764 HW1         23.6970     2.5530   -72.8080 HW1           1 RES     
   10765 HW2         22.8220     1.2650   -73.2990 HW2           1 RES     
   10766 OW          43.6190    31.1150   -71.5610 OW            1 RES     
   10767 HW1         42.6250    31.2180   -71.5760 HW1           1 RES     
   10768 HW2         43.8570    30.2240   -71.1730 HW2           1 RES     
   10769 OW          -0.8580    41.8600   -72.7520 OW            1 RES     
   10770 HW1         -0.5310    41.8550   -71.8080 HW1           1 RES     
   10771 HW2         -0.0840    41.9850   -73.3730 HW2           1 RES     
   10772 OW          23.1680     5.1900   -69.8280 OW            1 RES     
   10773 HW1         23.4220     4.3600   -70.3230 HW1           1 RES     
   10774 HW2         23.5290     5.9890   -70.3090 HW2           1 RES     
   10775 OW          32.8450     5.6210   -70.4400 OW            1 RES     
   10776 HW1         32.8660     5.2860   -69.4980 HW1           1 RES     
   10777 HW2         31.8990     5.6550   -70.7610 HW2           1 RES     
   10778 OW           7.4160    36.4170   -61.8210 OW            1 RES     
   10779 HW1          7.1200    36.3220   -62.7710 HW1           1 RES     
   10780 HW2          6.6920    36.0950   -61.2120 HW2           1 RES     
   10781 OW          33.0260    23.8440   -60.5540 OW            1 RES     
   10782 HW1         32.1040    23.8880   -60.9360 HW1           1 RES     
   10783 HW2         33.6120    23.3000   -61.1540 HW2           1 RES     
   10784 OW           2.9610     9.0160   -69.6330 OW            1 RES     
   10785 HW1          2.6400     8.4250   -68.8930 HW1           1 RES     
   10786 HW2          3.3270     8.4530   -70.3740 HW2           1 RES     
   10787 OW          19.5100    14.3710   -64.6250 OW            1 RES     
   10788 HW1         20.4570    14.6430   -64.4510 HW1           1 RES     
   10789 HW2         19.4850    13.4140   -64.9130 HW2           1 RES     
   10790 OW          19.9050     6.0540   -60.8890 OW            1 RES     
   10791 HW1         19.1980     5.8240   -61.5570 HW1           1 RES     
   10792 HW2         19.9780     5.3200   -60.2140 HW2           1 RES     
   10793 OW           9.0440     4.3350   -63.1810 OW            1 RES     
   10794 HW1          9.4990     4.0080   -62.3530 HW1           1 RES     
   10795 HW2          8.7870     5.2940   -63.0650 HW2           1 RES     
   10796 OW          37.5020     5.0450   -59.2360 OW            1 RES     
   10797 HW1         37.7160     4.2170   -58.7180 HW1           1 RES     
   10798 HW2         36.9210     4.8100   -60.0160 HW2           1 RES     
   10799 OW          -2.8490    37.3370   -65.2010 OW            1 RES     
   10800 HW1         -1.8540    37.3340   -65.3000 HW1           1 RES     
   10801 HW2         -3.2250    36.4900   -65.5760 HW2           1 RES     
   10802 OW          15.0440    22.7790   -68.4070 OW            1 RES     
   10803 HW1         15.1230    21.8130   -68.1650 HW1           1 RES     
   10804 HW2         14.5850    22.8650   -69.2920 HW2           1 RES     
   10805 OW           3.8460    23.5940   -71.8440 OW            1 RES     
   10806 HW1          4.1500    23.1300   -71.0130 HW1           1 RES     
   10807 HW2          2.9200    23.2940   -72.0740 HW2           1 RES     
   10808 OW          18.2240     6.9630   -63.9770 OW            1 RES     
   10809 HW1         18.4600     7.7380   -63.3920 HW1           1 RES     
   10810 HW2         18.7460     6.1590   -63.6920 HW2           1 RES     
   10811 OW           2.8650    -2.8620   -60.5350 OW            1 RES     
   10812 HW1          2.4460    -3.7650   -60.6290 HW1           1 RES     
   10813 HW2          3.8450    -2.9280   -60.7240 HW2           1 RES     
   10814 OW          20.2120     8.3120   -66.2410 OW            1 RES     
   10815 HW1         20.4840     7.3970   -65.9440 HW1           1 RES     
   10816 HW2         19.3000     8.2740   -66.6490 HW2           1 RES     
   10817 OW          22.5160    35.0270   -71.5070 OW            1 RES     
   10818 HW1         22.1330    34.1050   -71.4580 HW1           1 RES     
   10819 HW2         21.7750    35.6980   -71.4700 HW2           1 RES     
   10820 OW          42.6570    26.3480   -69.2310 OW            1 RES     
   10821 HW1         41.9140    25.7940   -68.8580 HW1           1 RES     
   10822 HW2         42.7340    26.1860   -70.2150 HW2           1 RES     
   10823 OW          20.1200     3.1880   -66.0590 OW            1 RES     
   10824 HW1         20.6190     2.4010   -65.6990 HW1           1 RES     
   10825 HW2         20.7000     4.0020   -66.0110 HW2           1 RES     
   10826 OW          30.2170    24.9330   -74.0390 OW            1 RES     
   10827 HW1         30.9760    25.4460   -73.6380 HW1           1 RES     
   10828 HW2         29.3750    25.4680   -73.9610 HW2           1 RES     
   10829 OW           6.8280    40.1330   -62.5320 OW            1 RES     
   10830 HW1          7.7090    39.8700   -62.9230 HW1           1 RES     
   10831 HW2          6.7940    41.1270   -62.4230 HW2           1 RES     
   10832 OW          -5.9570     6.9930   -69.8480 OW            1 RES     
   10833 HW1         -6.0120     7.4780   -70.7210 HW1           1 RES     
   10834 HW2         -6.7730     6.4260   -69.7300 HW2           1 RES     
   10835 OW          38.1130    26.7930   -61.5470 OW            1 RES     
   10836 HW1         38.8450    26.1310   -61.7050 HW1           1 RES     
   10837 HW2         38.4480    27.7150   -61.7410 HW2           1 RES     
   10838 OW           4.2430    42.1080   -72.8850 OW            1 RES     
   10839 HW1          4.8730    42.8790   -72.7970 HW1           1 RES     
   10840 HW2          3.3770    42.3320   -72.4380 HW2           1 RES     
   10841 OW          12.8570    14.1760   -62.2020 OW            1 RES     
   10842 HW1         11.9590    13.7710   -62.3660 HW1           1 RES     
   10843 HW2         13.1560    13.9610   -61.2720 HW2           1 RES     
   10844 OW          -6.0000    10.3410   -62.0620 OW            1 RES     
   10845 HW1         -5.9350     9.7980   -61.2260 HW1           1 RES     
   10846 HW2         -5.2340    10.9830   -62.1030 HW2           1 RES     
   10847 OW          39.8540    36.7820   -72.9940 OW            1 RES     
   10848 HW1         39.0830    37.4170   -72.9540 HW1           1 RES     
   10849 HW2         39.9170    36.3900   -73.9120 HW2           1 RES     
   10850 OW          -1.6610    30.9120   -64.3370 OW            1 RES     
   10851 HW1         -1.8660    31.8380   -64.6510 HW1           1 RES     
   10852 HW2         -2.3300    30.6380   -63.6460 HW2           1 RES     
   10853 OW           2.8010    27.5850   -73.2320 OW            1 RES     
   10854 HW1          1.8940    27.2860   -73.5250 HW1           1 RES     
   10855 HW2          3.0140    28.4670   -73.6520 HW2           1 RES     
   10856 OW          44.4400    28.7770   -64.8490 OW            1 RES     
   10857 HW1         43.6770    28.5420   -65.4500 HW1           1 RES     
   10858 HW2         44.9590    29.5330   -65.2470 HW2           1 RES     
   10859 OW          16.0870    29.9420   -69.3580 OW            1 RES     
   10860 HW1         16.7630    30.4820   -69.8580 HW1           1 RES     
   10861 HW2         15.2220    29.9400   -69.8600 HW2           1 RES     
   10862 OW           6.8740    24.3240   -61.8320 OW            1 RES     
   10863 HW1          6.0020    24.8120   -61.8110 HW1           1 RES     
   10864 HW2          6.7050    23.3400   -61.8910 HW2           1 RES     
   10865 OW          22.8200     1.5990   -69.4780 OW            1 RES     
   10866 HW1         23.4060     1.6430   -70.2870 HW1           1 RES     
   10867 HW2         22.4740     2.5130   -69.2650 HW2           1 RES     
   10868 OW          -6.5450     6.1390   -73.9350 OW            1 RES     
   10869 HW1         -5.7370     5.6630   -73.5910 HW1           1 RES     
   10870 HW2         -6.4650     7.1170   -73.7410 HW2           1 RES     
   10871 OW          11.2520    39.1640   -67.8880 OW            1 RES     
   10872 HW1         11.5930    40.0400   -67.5490 HW1           1 RES     
   10873 HW2         11.8760    38.4330   -67.6090 HW2           1 RES     
   10874 OW          -2.1620    21.5840   -66.6800 OW            1 RES     
   10875 HW1         -2.1630    22.5240   -66.3410 HW1           1 RES     
   10876 HW2         -1.3100    21.4090   -67.1750 HW2           1 RES     
   10877 OW          -5.0290    14.4900   -63.5830 OW            1 RES     
   10878 HW1         -4.2620    14.9050   -63.0950 HW1           1 RES     
   10879 HW2         -5.5530    13.9150   -62.9540 HW2           1 RES     
   10880 OW          10.9980    40.0120   -64.9780 OW            1 RES     
   10881 HW1         11.7700    39.4080   -65.1740 HW1           1 RES     
   10882 HW2         11.1000    40.8630   -65.4940 HW2           1 RES     
   10883 OW          10.4790    18.6540   -62.2070 OW            1 RES     
   10884 HW1         11.2580    18.6010   -61.5830 HW1           1 RES     
   10885 HW2          9.7860    17.9870   -61.9330 HW2           1 RES     
   10886 OW           7.0510    10.7000   -62.0780 OW            1 RES     
   10887 HW1          6.6400    10.6440   -61.1690 HW1           1 RES     
   10888 HW2          6.3440    10.5740   -62.7740 HW2           1 RES     
   10889 OW          20.1500    -4.1710   -60.9500 OW            1 RES     
   10890 HW1         19.1510    -4.1550   -60.9340 HW1           1 RES     
   10891 HW2         20.4970    -3.2390   -61.0570 HW2           1 RES     
   10892 OW           3.2580     0.0940   -72.5160 OW            1 RES     
   10893 HW1          3.6130     0.8420   -71.9560 HW1           1 RES     
   10894 HW2          4.0210    -0.4080   -72.9250 HW2           1 RES     
   10895 OW           8.8020     3.2230   -60.1640 OW            1 RES     
   10896 HW1          9.7240     3.5510   -59.9590 HW1           1 RES     
   10897 HW2          8.7920     2.2230   -60.1440 HW2           1 RES     
   10898 OW          26.0460     9.3220   -62.3370 OW            1 RES     
   10899 HW1         25.9670    10.2060   -62.7980 HW1           1 RES     
   10900 HW2         26.4840     9.4480   -61.4470 HW2           1 RES     
   10901 OW          12.6810     1.7870   -63.7450 OW            1 RES     
   10902 HW1         13.4360     1.2540   -63.3640 HW1           1 RES     
   10903 HW2         11.9790     1.1680   -64.0970 HW2           1 RES     
   10904 OW           4.2650    15.3310   -60.9350 OW            1 RES     
   10905 HW1          4.7600    16.1520   -61.2160 HW1           1 RES     
   10906 HW2          4.8950    14.5550   -60.9030 HW2           1 RES     
   10907 OW          22.9430    20.7100   -58.7720 OW            1 RES     
   10908 HW1         22.2280    20.0470   -58.9890 HW1           1 RES     
   10909 HW2         23.8070    20.2310   -58.6190 HW2           1 RES     
   10910 OW          10.9700    34.3640   -59.8330 OW            1 RES     
   10911 HW1         10.8550    34.0160   -60.7630 HW1           1 RES     
   10912 HW2         10.7250    35.3330   -59.8060 HW2           1 RES     
   10913 OW          10.5430    17.8870   -66.3790 OW            1 RES     
   10914 HW1         10.5560    18.8330   -66.7000 HW1           1 RES     
   10915 HW2         10.0420    17.3200   -67.0330 HW2           1 RES     
   10916 OW          13.4190    20.2040   -70.0870 OW            1 RES     
   10917 HW1         14.2270    20.7670   -69.9170 HW1           1 RES     
   10918 HW2         13.5260    19.3200   -69.6320 HW2           1 RES     
   10919 OW          28.4930    35.3930   -63.9660 OW            1 RES     
   10920 HW1         27.6010    34.9850   -64.1550 HW1           1 RES     
   10921 HW2         28.4780    36.3610   -64.2160 HW2           1 RES     
   10922 OW          -4.9210    17.8140   -65.8910 OW            1 RES     
   10923 HW1         -4.5020    17.2250   -66.5810 HW1           1 RES     
   10924 HW2         -4.5260    18.7310   -65.9510 HW2           1 RES     
   10925 OW           5.6160    38.6170   -59.0140 OW            1 RES     
   10926 HW1          5.8520    37.6670   -58.8110 HW1           1 RES     
   10927 HW2          6.3190    39.2230   -58.6420 HW2           1 RES     
   10928 OW          39.1400    31.7300   -64.7070 OW            1 RES     
   10929 HW1         38.5460    32.5310   -64.7720 HW1           1 RES     
   10930 HW2         39.9710    31.8870   -65.2400 HW2           1 RES     
   10931 OW          40.9050    27.1190   -63.5200 OW            1 RES     
   10932 HW1         40.8570    26.2450   -63.0380 HW1           1 RES     
   10933 HW2         39.9790    27.4530   -63.7010 HW2           1 RES     
   10934 OW           6.5930    17.5820   -63.2540 OW            1 RES     
   10935 HW1          7.0800    18.4470   -63.1370 HW1           1 RES     
   10936 HW2          5.6110    17.7580   -63.3130 HW2           1 RES     
   10937 OW          14.7880    23.9890   -63.3300 OW            1 RES     
   10938 HW1         15.3390    23.1880   -63.0970 HW1           1 RES     
   10939 HW2         13.9210    23.6920   -63.7310 HW2           1 RES     
   10940 OW          35.9740     8.2280   -63.0930 OW            1 RES     
   10941 HW1         35.4400     7.6230   -63.6830 HW1           1 RES     
   10942 HW2         36.2360     9.0470   -63.6040 HW2           1 RES     
   10943 OW          27.7450    35.9320   -70.3200 OW            1 RES     
   10944 HW1         26.9000    36.3710   -70.6240 HW1           1 RES     
   10945 HW2         28.1500    36.4660   -69.5780 HW2           1 RES     
   10946 OW          15.7660    20.7520   -62.2310 OW            1 RES     
   10947 HW1         14.8380    21.1170   -62.2970 HW1           1 RES     
   10948 HW2         16.4190    21.5070   -62.1720 HW2           1 RES     
   10949 OW          12.0040    24.1100   -65.1720 OW            1 RES     
   10950 HW1         11.5060    23.9450   -66.0230 HW1           1 RES     
   10951 HW2         11.9280    23.3080   -64.5800 HW2           1 RES     
   10952 OW          34.1410    34.4570   -70.9030 OW            1 RES     
   10953 HW1         35.0320    34.4260   -71.3530 HW1           1 RES     
   10954 HW2         34.2260    34.1100   -69.9690 HW2           1 RES     
   10955 OW          42.5020    12.9840   -74.0150 OW            1 RES     
   10956 HW1         42.9350    12.0940   -73.8740 HW1           1 RES     
   10957 HW2         41.5090    12.8720   -74.0390 HW2           1 RES     
   10958 OW          19.4140    10.4250   -64.6720 OW            1 RES     
   10959 HW1         19.9300    11.2570   -64.8750 HW1           1 RES     
   10960 HW2         19.7360    10.0340   -63.8100 HW2           1 RES     
   10961 OW          -3.7470    20.7340   -61.8920 OW            1 RES     
   10962 HW1         -4.6230    20.8470   -61.4240 HW1           1 RES     
   10963 HW2         -3.4250    21.6240   -62.2160 HW2           1 RES     
   10964 OW          26.0020    -1.3820   -72.1240 OW            1 RES     
   10965 HW1         25.0080    -1.2930   -72.0790 HW1           1 RES     
   10966 HW2         26.3650    -0.7430   -72.8030 HW2           1 RES     
   10967 OW          33.8380     8.6120   -71.3580 OW            1 RES     
   10968 HW1         34.8050     8.8370   -71.2390 HW1           1 RES     
   10969 HW2         33.5990     7.8430   -70.7650 HW2           1 RES     
   10970 OW          -4.0410    39.5250   -70.9000 OW            1 RES     
   10971 HW1         -4.2950    38.6230   -71.2470 HW1           1 RES     
   10972 HW2         -4.7390    40.1920   -71.1630 HW2           1 RES     
   10973 OW          22.9220    40.5770   -73.2260 OW            1 RES     
   10974 HW1         22.3460    40.4830   -74.0380 HW1           1 RES     
   10975 HW2         23.4060    39.7180   -73.0580 HW2           1 RES     
   10976 OW          36.6130    41.5130   -71.9100 OW            1 RES     
   10977 HW1         36.1170    40.9170   -72.5390 HW1           1 RES     
   10978 HW2         37.2370    42.1000   -72.4270 HW2           1 RES     
   10979 OW          34.2240    25.0170   -71.7280 OW            1 RES     
   10980 HW1         34.0240    24.5920   -72.6100 HW1           1 RES     
   10981 HW2         33.7000    24.5590   -71.0100 HW2           1 RES     
   10982 OW          18.5270    19.1310   -64.5640 OW            1 RES     
   10983 HW1         18.4680    18.1930   -64.9050 HW1           1 RES     
   10984 HW2         19.4880    19.3820   -64.4430 HW2           1 RES     
   10985 OW          -0.6010    -1.0910   -59.3330 OW            1 RES     
   10986 HW1         -0.3270    -1.6800   -58.5730 HW1           1 RES     
   10987 HW2         -1.5740    -0.8730   -59.2520 HW2           1 RES     
   10988 OW          -6.0030     9.2660   -73.8450 OW            1 RES     
   10989 HW1         -5.1570     9.7610   -74.0390 HW1           1 RES     
   10990 HW2         -6.1610     9.2480   -72.8580 HW2           1 RES     
   10991 OW          34.4840    22.0770   -72.2390 OW            1 RES     
   10992 HW1         33.9380    22.0590   -73.0760 HW1           1 RES     
   10993 HW2         34.2080    21.3210   -71.6450 HW2           1 RES     
   10994 OW          17.4300    28.6060   -67.4560 OW            1 RES     
   10995 HW1         17.1470    29.5440   -67.2560 HW1           1 RES     
   10996 HW2         16.6790    27.9790   -67.2470 HW2           1 RES     
   10997 OW          15.7850     0.6880   -59.3140 OW            1 RES     
   10998 HW1         15.7880     1.1990   -60.1720 HW1           1 RES     
   10999 HW2         15.9470     1.3140   -58.5510 HW2           1 RES     
   11000 OW          12.7720     8.1920   -63.5110 OW            1 RES     
   11001 HW1         11.9700     8.2730   -64.1020 HW1           1 RES     
   11002 HW2         13.0970     7.2460   -63.5170 HW2           1 RES     
   11003 OW           6.0790     8.7940   -68.0170 OW            1 RES     
   11004 HW1          6.4920     7.9110   -68.2340 HW1           1 RES     
   11005 HW2          6.7090     9.5290   -68.2680 HW2           1 RES     
   11006 OW          -2.2140     7.6880   -61.8250 OW            1 RES     
   11007 HW1         -1.3400     8.1380   -62.0040 HW1           1 RES     
   11008 HW2         -2.1190     7.0730   -61.0420 HW2           1 RES     
   11009 OW           2.3370    33.6630   -71.9180 OW            1 RES     
   11010 HW1          2.0940    34.0370   -71.0240 HW1           1 RES     
   11011 HW2          2.1320    34.3360   -72.6290 HW2           1 RES     
   11012 OW          40.6830    43.2040   -68.1010 OW            1 RES     
   11013 HW1         40.6710    42.2910   -67.6930 HW1           1 RES     
   11014 HW2         39.8880    43.3140   -68.6980 HW2           1 RES     
   11015 OW          19.1870    31.3020   -63.3670 OW            1 RES     
   11016 HW1         18.8420    30.8320   -62.5560 HW1           1 RES     
   11017 HW2         20.1420    31.5630   -63.2220 HW2           1 RES     
   11018 OW          36.2510    32.5300   -58.6090 OW            1 RES     
   11019 HW1         35.4440    33.1160   -58.5520 HW1           1 RES     
   11020 HW2         37.0740    33.0980   -58.6500 HW2           1 RES     
   11021 OW          14.3050    12.3140   -66.9560 OW            1 RES     
   11022 HW1         14.3750    13.2320   -66.5670 HW1           1 RES     
   11023 HW2         13.9390    12.3730   -67.8850 HW2           1 RES     
   11024 OW           1.7440     3.2530   -65.3060 OW            1 RES     
   11025 HW1          0.9190     3.1680   -65.8640 HW1           1 RES     
   11026 HW2          2.4680     3.6840   -65.8450 HW2           1 RES     
   11027 OW          32.4660    23.8930   -67.9580 OW            1 RES     
   11028 HW1         31.7530    24.5440   -68.2190 HW1           1 RES     
   11029 HW2         33.0660    23.7250   -68.7400 HW2           1 RES     
   11030 OW          -2.5080    19.5830   -59.7270 OW            1 RES     
   11031 HW1         -2.9720    18.6980   -59.7080 HW1           1 RES     
   11032 HW2         -3.1870    20.3160   -59.6890 HW2           1 RES     
   11033 OW          -4.2210    42.3020   -63.8860 OW            1 RES     
   11034 HW1         -4.2380    43.2990   -63.9580 HW1           1 RES     
   11035 HW2         -5.1330    41.9690   -63.6450 HW2           1 RES     
   11036 OW          26.0950    28.5950   -66.1990 OW            1 RES     
   11037 HW1         26.1830    27.5990   -66.2030 HW1           1 RES     
   11038 HW2         25.1520    28.8480   -66.4190 HW2           1 RES     
   11039 OW          35.3140    31.6290   -71.8020 OW            1 RES     
   11040 HW1         36.0430    32.2740   -71.5740 HW1           1 RES     
   11041 HW2         34.9680    31.8250   -72.7190 HW2           1 RES     
   11042 OW          42.9190    18.2270   -65.6940 OW            1 RES     
   11043 HW1         42.7510    17.9410   -66.6360 HW1           1 RES     
   11044 HW2         43.6900    17.7110   -65.3200 HW2           1 RES     
   11045 OW           1.5990     7.2030   -66.9040 OW            1 RES     
   11046 HW1          0.8620     6.5590   -67.1040 HW1           1 RES     
   11047 HW2          1.2210     8.0130   -66.4550 HW2           1 RES     
   11048 OW          29.3390    22.9760   -62.2680 OW            1 RES     
   11049 HW1         29.3180    22.2800   -62.9850 HW1           1 RES     
   11050 HW2         28.6410    23.6680   -62.4540 HW2           1 RES     
   11051 OW          -0.3460     2.2990   -63.0520 OW            1 RES     
   11052 HW1          0.3050     2.2440   -62.2960 HW1           1 RES     
   11053 HW2          0.1520     2.3630   -63.9170 HW2           1 RES     
   11054 OW          20.8540    -0.4940   -59.3820 OW            1 RES     
   11055 HW1         20.0830    -0.5390   -58.7470 HW1           1 RES     
   11056 HW2         20.9390    -1.3650   -59.8660 HW2           1 RES     
   11057 OW          19.9370    39.3260   -59.9800 OW            1 RES     
   11058 HW1         19.0190    39.5390   -59.6440 HW1           1 RES     
   11059 HW2         20.2420    38.4580   -59.5890 HW2           1 RES     
   11060 OW          40.1890    25.4430   -70.7290 OW            1 RES     
   11061 HW1         41.0400    24.9350   -70.8540 HW1           1 RES     
   11062 HW2         40.3910    26.4200   -70.6480 HW2           1 RES     
   11063 OW          34.0670     3.3370   -60.0120 OW            1 RES     
   11064 HW1         34.3770     3.7220   -60.8800 HW1           1 RES     
   11065 HW2         34.3350     3.9410   -59.2620 HW2           1 RES     
   11066 OW          11.0050    42.6670   -62.4400 OW            1 RES     
   11067 HW1         10.3300    43.3120   -62.7970 HW1           1 RES     
   11068 HW2         11.3570    43.0020   -61.5660 HW2           1 RES     
   11069 OW          25.6030    22.4880   -59.6770 OW            1 RES     
   11070 HW1         25.9490    22.6000   -58.7460 HW1           1 RES     
   11071 HW2         24.7920    21.9020   -59.6630 HW2           1 RES     
   11072 OW           7.2040     0.8670   -63.9600 OW            1 RES     
   11073 HW1          6.9460     0.8050   -62.9960 HW1           1 RES     
   11074 HW2          6.7960     0.1060   -64.4640 HW2           1 RES     
   11075 OW          13.9880    13.6970   -64.0610 OW            1 RES     
   11076 HW1         14.6030    12.9490   -64.3060 HW1           1 RES     
   11077 HW2         14.4880    14.5630   -64.0890 HW2           1 RES     
   11078 OW          18.8640    15.6060   -71.7820 OW            1 RES     
   11079 HW1         18.8770    15.6860   -70.7860 HW1           1 RES     
   11080 HW2         19.7090    15.9860   -72.1580 HW2           1 RES     
   11081 OW          10.4670    27.5020   -72.1540 OW            1 RES     
   11082 HW1          9.8560    27.1180   -71.4630 HW1           1 RES     
   11083 HW2         10.4360    26.9380   -72.9790 HW2           1 RES     
   11084 OW           0.4450    10.0560   -65.9020 OW            1 RES     
   11085 HW1          0.3660    10.0360   -66.8980 HW1           1 RES     
   11086 HW2          1.3210    10.4640   -65.6440 HW2           1 RES     
   11087 OW          30.3870    42.6990   -63.1970 OW            1 RES     
   11088 HW1         31.2870    42.8300   -63.6120 HW1           1 RES     
   11089 HW2         30.1380    41.7320   -63.2380 HW2           1 RES     
   11090 OW          37.2300    23.6620   -67.1520 OW            1 RES     
   11091 HW1         37.7240    24.4310   -67.5560 HW1           1 RES     
   11092 HW2         36.3950    23.4900   -67.6750 HW2           1 RES     
   11093 OW          42.4490    28.3090   -67.4790 OW            1 RES     
   11094 HW1         41.9100    27.4710   -67.4000 HW1           1 RES     
   11095 HW2         42.7120    28.4490   -68.4340 HW2           1 RES     
   11096 OW          39.9620    25.7930   -67.8430 OW            1 RES     
   11097 HW1         39.0420    26.1790   -67.7740 HW1           1 RES     
   11098 HW2         39.9030    24.7950   -67.8770 HW2           1 RES     
   11099 OW          42.4210    -2.2540   -71.7300 OW            1 RES     
   11100 HW1         42.5190    -2.7160   -70.8490 HW1           1 RES     
   11101 HW2         41.9390    -2.8530   -72.3700 HW2           1 RES     
   11102 OW           4.3350     9.4240   -63.0830 OW            1 RES     
   11103 HW1          3.7180    10.1590   -63.3610 HW1           1 RES     
   11104 HW2          3.8020     8.6170   -62.8310 HW2           1 RES     
   11105 OW          22.3590    27.5490   -73.2040 OW            1 RES     
   11106 HW1         22.0140    26.8470   -73.8260 HW1           1 RES     
   11107 HW2         22.7630    27.1140   -72.4000 HW2           1 RES     
   11108 OW          23.3940    41.3570   -67.5740 OW            1 RES     
   11109 HW1         22.6640    41.8560   -67.1080 HW1           1 RES     
   11110 HW2         24.2490    41.8700   -67.5020 HW2           1 RES     
   11111 OW          11.4710     4.1820   -71.3370 OW            1 RES     
   11112 HW1         12.0540     3.8940   -70.5780 HW1           1 RES     
   11113 HW2         11.7850     3.7490   -72.1820 HW2           1 RES     
   11114 OW          11.3680    34.8330   -66.7850 OW            1 RES     
   11115 HW1         10.7550    35.5410   -67.1320 HW1           1 RES     
   11116 HW2         12.2520    35.2400   -66.5520 HW2           1 RES     
   11117 OW          32.7220    27.3090   -68.3730 OW            1 RES     
   11118 HW1         33.5860    27.4470   -67.8900 HW1           1 RES     
   11119 HW2         32.7340    26.4210   -68.8330 HW2           1 RES     
   11120 OW          12.5120    30.2530   -72.0550 OW            1 RES     
   11121 HW1         13.3200    29.6640   -72.0800 HW1           1 RES     
   11122 HW2         12.7920    31.2080   -72.1490 HW2           1 RES     
   11123 OW           3.3320    42.4740   -64.0670 OW            1 RES     
   11124 HW1          3.5870    41.7130   -64.6630 HW1           1 RES     
   11125 HW2          4.1040    42.7070   -63.4750 HW2           1 RES     
   11126 OW          20.4520     9.1760   -59.5360 OW            1 RES     
   11127 HW1         21.2010     8.5150   -59.5570 HW1           1 RES     
   11128 HW2         19.5790     8.6910   -59.4880 HW2           1 RES     
   11129 OW          39.0580    -3.8270   -62.2510 OW            1 RES     
   11130 HW1         40.0210    -3.8890   -61.9900 HW1           1 RES     
   11131 HW2         38.8560    -2.8990   -62.5630 HW2           1 RES     
   11132 OW          24.4190    21.9920   -63.2400 OW            1 RES     
   11133 HW1         25.0780    22.3280   -62.5680 HW1           1 RES     
   11134 HW2         23.5200    21.9010   -62.8100 HW2           1 RES     
   11135 OW          17.2800     6.2860   -71.9290 OW            1 RES     
   11136 HW1         16.5970     5.8950   -71.3120 HW1           1 RES     
   11137 HW2         17.4830     5.6330   -72.6590 HW2           1 RES     
   11138 OW          -5.3240    -3.8540   -69.2480 OW            1 RES     
   11139 HW1         -4.5710    -4.3160   -68.7810 HW1           1 RES     
   11140 HW2         -5.0750    -2.9010   -69.4220 HW2           1 RES     
   11141 OW          27.5720    11.3570   -72.2630 OW            1 RES     
   11142 HW1         28.5330    11.0900   -72.3350 HW1           1 RES     
   11143 HW2         27.4980    12.3540   -72.3090 HW2           1 RES     
   11144 OW          16.1420     8.0290   -60.3600 OW            1 RES     
   11145 HW1         16.3600     8.9430   -60.7020 HW1           1 RES     
   11146 HW2         15.1500     7.9310   -60.2780 HW2           1 RES     
   11147 OW          -5.4110    14.1340   -68.1940 OW            1 RES     
   11148 HW1         -4.9710    13.2860   -67.9000 HW1           1 RES     
   11149 HW2         -6.1640    13.9200   -68.8170 HW2           1 RES     
   11150 OW          32.7310    20.6980   -67.3780 OW            1 RES     
   11151 HW1         33.2510    20.3560   -68.1600 HW1           1 RES     
   11152 HW2         32.5490    21.6740   -67.4990 HW2           1 RES     
   11153 OW          24.3590     9.7070   -71.0630 OW            1 RES     
   11154 HW1         25.3000     9.5470   -70.7670 HW1           1 RES     
   11155 HW2         24.0930     9.0050   -71.7230 HW2           1 RES     
   11156 OW           3.0330    15.5830   -69.2880 OW            1 RES     
   11157 HW1          2.5930    16.4800   -69.3030 HW1           1 RES     
   11158 HW2          2.3330    14.8680   -69.2990 HW2           1 RES     
   11159 OW          25.0560    39.1630   -67.3500 OW            1 RES     
   11160 HW1         24.0630    39.2640   -67.3160 HW1           1 RES     
   11161 HW2         25.2940    38.1920   -67.3380 HW2           1 RES     
   11162 OW          -2.0930    -1.8790   -64.5770 OW            1 RES     
   11163 HW1         -1.7530    -1.0290   -64.9770 HW1           1 RES     
   11164 HW2         -2.9170    -1.6900   -64.0420 HW2           1 RES     
   11165 OW           9.1310    34.3010   -68.9350 OW            1 RES     
   11166 HW1          9.4960    35.2310   -68.9090 HW1           1 RES     
   11167 HW2          8.1980    34.2990   -68.5730 HW2           1 RES     
   11168 OW          12.9650    26.8590   -64.4690 OW            1 RES     
   11169 HW1         12.2730    26.3940   -65.0190 HW1           1 RES     
   11170 HW2         12.8370    26.6260   -63.5050 HW2           1 RES     
   11171 OW          34.2070    37.0640   -63.6050 OW            1 RES     
   11172 HW1         34.8050    37.8250   -63.3560 HW1           1 RES     
   11173 HW2         33.2920    37.4130   -63.8120 HW2           1 RES     
   11174 OW          41.5760     3.3790   -62.2460 OW            1 RES     
   11175 HW1         41.8650     2.5490   -62.7210 HW1           1 RES     
   11176 HW2         40.6500     3.6230   -62.5340 HW2           1 RES     
   11177 OW          27.1680    15.0510   -64.3800 OW            1 RES     
   11178 HW1         27.4970    15.9560   -64.1130 HW1           1 RES     
   11179 HW2         26.1970    14.9700   -64.1580 HW2           1 RES     
   11180 OW          -6.3240     1.0850   -67.5910 OW            1 RES     
   11181 HW1         -6.7730     1.9610   -67.4180 HW1           1 RES     
   11182 HW2         -5.3330     1.2180   -67.6220 HW2           1 RES     
   11183 OW          38.7420    40.3420   -68.0150 OW            1 RES     
   11184 HW1         39.6350    40.0510   -68.3560 HW1           1 RES     
   11185 HW2         38.7030    40.2090   -67.0240 HW2           1 RES     
   11186 OW           1.9110    38.0250   -67.3780 OW            1 RES     
   11187 HW1          2.6010    37.7030   -66.7300 HW1           1 RES     
   11188 HW2          2.1640    38.9340   -67.7100 HW2           1 RES     
   11189 OW          39.7790     8.1710   -70.5780 OW            1 RES     
   11190 HW1         39.9250     7.1990   -70.4020 HW1           1 RES     
   11191 HW2         40.3730     8.4680   -71.3250 HW2           1 RES     
   11192 OW          28.2480     6.6650   -65.9930 OW            1 RES     
   11193 HW1         27.3590     6.2180   -65.8980 HW1           1 RES     
   11194 HW2         28.1150     7.6450   -66.1440 HW2           1 RES     
   11195 OW          33.8270    16.9710   -66.6180 OW            1 RES     
   11196 HW1         33.3610    16.1360   -66.3280 HW1           1 RES     
   11197 HW2         34.7720    16.7580   -66.8650 HW2           1 RES     
   11198 OW          22.7490    40.9780   -60.4620 OW            1 RES     
   11199 HW1         22.5870    40.1600   -59.9120 HW1           1 RES     
   11200 HW2         23.0080    41.7370   -59.8640 HW2           1 RES     
   11201 OW          -6.7700    26.3270   -64.6690 OW            1 RES     
   11202 HW1         -6.2340    26.7910   -63.9650 HW1           1 RES     
   11203 HW2         -6.4900    26.6540   -65.5720 HW2           1 RES     
   11204 OW          43.0950    14.8490   -72.4940 OW            1 RES     
   11205 HW1         43.8490    14.3560   -72.9260 HW1           1 RES     
   11206 HW2         43.2100    15.8320   -72.6410 HW2           1 RES     
   11207 OW          41.6440    12.3490   -65.8780 OW            1 RES     
   11208 HW1         42.1380    12.9030   -66.5470 HW1           1 RES     
   11209 HW2         42.1760    11.5290   -65.6660 HW2           1 RES     
   11210 OW          12.6640    29.5700   -62.3600 OW            1 RES     
   11211 HW1         13.5320    29.9370   -62.6940 HW1           1 RES     
   11212 HW2         11.9090    29.9810   -62.8720 HW2           1 RES     
   11213 OW          39.7790    16.5180   -66.1160 OW            1 RES     
   11214 HW1         39.8580    16.1970   -65.1730 HW1           1 RES     
   11215 HW2         40.6330    16.9580   -66.3920 HW2           1 RES     
   11216 OW          40.0780    12.3970   -68.8980 OW            1 RES     
   11217 HW1         39.5920    12.6010   -69.7470 HW1           1 RES     
   11218 HW2         40.8390    11.7770   -69.0910 HW2           1 RES     
   11219 OW          20.6450    28.9740   -63.0840 OW            1 RES     
   11220 HW1         19.6830    28.9570   -63.3550 HW1           1 RES     
   11221 HW2         21.2110    28.6530   -63.8440 HW2           1 RES     
   11222 OW           6.2450    14.6690   -65.8980 OW            1 RES     
   11223 HW1          5.8280    14.7430   -66.8030 HW1           1 RES     
   11224 HW2          5.7060    14.0470   -65.3300 HW2           1 RES     
   11225 OW          23.4860    35.3330   -63.0670 OW            1 RES     
   11226 HW1         23.4730    36.1450   -62.4850 HW1           1 RES     
   11227 HW2         23.9500    35.5460   -63.9270 HW2           1 RES     
   11228 OW           4.7350     0.2330   -60.6690 OW            1 RES     
   11229 HW1          3.9410    -0.3680   -60.7560 HW1           1 RES     
   11230 HW2          4.4480     1.1840   -60.7870 HW2           1 RES     
   11231 OW          39.6890     5.6320   -72.2000 OW            1 RES     
   11232 HW1         38.8970     6.2400   -72.1520 HW1           1 RES     
   11233 HW2         40.5260     6.1760   -72.2560 HW2           1 RES     
   11234 OW          10.6960     3.3080   -64.7590 OW            1 RES     
   11235 HW1         10.0750     4.0130   -65.0990 HW1           1 RES     
   11236 HW2         11.2470     3.6810   -64.0110 HW2           1 RES     
   11237 OW           2.8300    31.0890   -61.5330 OW            1 RES     
   11238 HW1          3.6190    30.9360   -60.9370 HW1           1 RES     
   11239 HW2          2.5140    32.0330   -61.4330 HW2           1 RES     
   11240 OW          35.6430    21.6310   -69.8440 OW            1 RES     
   11241 HW1         34.8300    21.2470   -69.4080 HW1           1 RES     
   11242 HW2         36.3260    21.8460   -69.1460 HW2           1 RES     
   11243 OW          -6.2710    26.9070   -69.9060 OW            1 RES     
   11244 HW1         -6.7730    27.7430   -70.1270 HW1           1 RES     
   11245 HW2         -6.3250    26.2720   -70.6770 HW2           1 RES     
   11246 OW          15.5320    -3.5170   -64.7460 OW            1 RES     
   11247 HW1         14.7690    -4.1580   -64.8320 HW1           1 RES     
   11248 HW2         16.3920    -4.0260   -64.6980 HW2           1 RES     
   11249 OW          37.6250     1.5010   -65.2180 OW            1 RES     
   11250 HW1         38.5730     1.6250   -65.5060 HW1           1 RES     
   11251 HW2         37.4620     0.5370   -65.0080 HW2           1 RES     
   11252 OW          34.9090     2.5110   -67.6150 OW            1 RES     
   11253 HW1         35.8230     2.1270   -67.7380 HW1           1 RES     
   11254 HW2         34.7540     3.2280   -68.2950 HW2           1 RES     
   11255 OW          44.7660    17.2220   -74.0370 OW            1 RES     
   11256 HW1         43.7890    17.4290   -74.0390 HW1           1 RES     
   11257 HW2         44.8970    16.2300   -74.0350 HW2           1 RES     
   11258 OW           3.0430    11.1240   -67.2620 OW            1 RES     
   11259 HW1          3.3710    10.6560   -66.4420 HW1           1 RES     
   11260 HW2          2.6970    10.4500   -67.9150 HW2           1 RES     
   11261 OW           8.1970    -3.6690   -70.7540 OW            1 RES     
   11262 HW1          7.4850    -3.0890   -70.3600 HW1           1 RES     
   11263 HW2          8.6880    -4.1390   -70.0200 HW2           1 RES     
   11264 OW          18.6980    36.6030   -66.8860 OW            1 RES     
   11265 HW1         19.6080    36.8720   -66.5720 HW1           1 RES     
   11266 HW2         18.1940    37.4130   -67.1850 HW2           1 RES     
   11267 OW          -3.1740    35.4770   -62.8660 OW            1 RES     
   11268 HW1         -3.9140    36.0220   -62.4730 HW1           1 RES     
   11269 HW2         -2.3500    36.0380   -62.9420 HW2           1 RES     
   11270 OW          39.9960     7.5940   -66.7530 OW            1 RES     
   11271 HW1         39.7480     7.1400   -65.8980 HW1           1 RES     
   11272 HW2         40.2090     6.9060   -67.4470 HW2           1 RES     
   11273 OW          10.6110    39.8200   -60.9630 OW            1 RES     
   11274 HW1         10.0640    40.5700   -61.3310 HW1           1 RES     
   11275 HW2         11.2990    39.5470   -61.6360 HW2           1 RES     
   11276 OW          32.3380     4.7000   -72.6940 OW            1 RES     
   11277 HW1         32.4400     5.5230   -73.2510 HW1           1 RES     
   11278 HW2         31.4490     4.2800   -72.8780 HW2           1 RES     
   11279 OW          33.8590    -3.9630   -72.8060 OW            1 RES     
   11280 HW1         33.5680    -4.3150   -71.9170 HW1           1 RES     
   11281 HW2         33.0970    -4.0210   -73.4520 HW2           1 RES     
   11282 OW          23.8510    19.1760   -72.1470 OW            1 RES     
   11283 HW1         22.9650    19.6360   -72.1140 HW1           1 RES     
   11284 HW2         24.2160    19.2220   -73.0770 HW2           1 RES     
   11285 OW          33.1890    19.2060   -65.2810 OW            1 RES     
   11286 HW1         32.6560    18.3670   -65.3850 HW1           1 RES     
   11287 HW2         32.5770    19.9960   -65.2990 HW2           1 RES     
   11288 OW          34.9550    11.7080   -68.0320 OW            1 RES     
   11289 HW1         35.9500    11.6190   -68.0580 HW1           1 RES     
   11290 HW2         34.5380    10.7990   -68.0660 HW2           1 RES     
   11291 OW          39.5740    13.5750   -71.8050 OW            1 RES     
   11292 HW1         39.2670    14.5260   -71.7850 HW1           1 RES     
   11293 HW2         39.7830    13.3110   -72.7470 HW2           1 RES     
   11294 OW           9.1170    38.7640   -69.9080 OW            1 RES     
   11295 HW1          8.9630    39.1100   -70.8330 HW1           1 RES     
   11296 HW2          8.4380    39.1550   -69.2870 HW2           1 RES     
   11297 OW          36.6730    34.9500   -66.8320 OW            1 RES     
   11298 HW1         36.1520    34.0980   -66.8540 HW1           1 RES     
   11299 HW2         37.4170    34.8700   -66.1680 HW2           1 RES     
   11300 OW          27.6470    26.8660   -60.0760 OW            1 RES     
   11301 HW1         28.5830    27.1270   -60.3110 HW1           1 RES     
   11302 HW2         27.6660    26.1330   -59.3950 HW2           1 RES     
   11303 OW          39.3280    14.3080   -62.6020 OW            1 RES     
   11304 HW1         39.9380    13.5240   -62.7160 HW1           1 RES     
   11305 HW2         39.8150    15.1480   -62.8420 HW2           1 RES     
   11306 OW          36.9370    16.0340   -67.3220 OW            1 RES     
   11307 HW1         37.5250    15.4380   -66.7770 HW1           1 RES     
   11308 HW2         36.7960    15.6290   -68.2260 HW2           1 RES     
   11309 OW          18.9320    -2.4130   -63.0350 OW            1 RES     
   11310 HW1         17.9520    -2.6120   -63.0370 HW1           1 RES     
   11311 HW2         19.4470    -3.2710   -63.0340 HW2           1 RES     
   11312 OW           7.9240    15.2660   -70.9080 OW            1 RES     
   11313 HW1          8.1800    15.2890   -69.9420 HW1           1 RES     
   11314 HW2          7.4420    16.1100   -71.1450 HW2           1 RES     
   11315 OW          28.9440    -0.5700   -70.1900 OW            1 RES     
   11316 HW1         29.2890    -1.4640   -69.9060 HW1           1 RES     
   11317 HW2         27.9440    -0.5870   -70.2030 HW2           1 RES     
   11318 OW          37.5040    37.8920   -64.7300 OW            1 RES     
   11319 HW1         38.1550    38.6340   -64.8920 HW1           1 RES     
   11320 HW2         37.5810    37.5820   -63.7830 HW2           1 RES     
   11321 OW          26.2190    -1.6430   -63.6910 OW            1 RES     
   11322 HW1         26.5050    -2.4580   -64.1930 HW1           1 RES     
   11323 HW2         27.0190    -1.0790   -63.4860 HW2           1 RES     
   11324 OW          35.4960    28.7110   -73.2160 OW            1 RES     
   11325 HW1         35.3000    29.6840   -73.1000 HW1           1 RES     
   11326 HW2         36.2810    28.5990   -73.8260 HW2           1 RES     
   11327 OW          13.4920    31.5640   -68.7820 OW            1 RES     
   11328 HW1         13.7530    31.1940   -67.8910 HW1           1 RES     
   11329 HW2         14.3120    31.8550   -69.2750 HW2           1 RES     
   11330 OW          36.9170     0.6530   -60.9240 OW            1 RES     
   11331 HW1         37.6820     0.4490   -61.5350 HW1           1 RES     
   11332 HW2         36.8010    -0.0970   -60.2720 HW2           1 RES     
   11333 OW          38.5040    20.7090   -61.2480 OW            1 RES     
   11334 HW1         39.3630    21.2160   -61.1910 HW1           1 RES     
   11335 HW2         38.6030    19.8300   -60.7800 HW2           1 RES     
   11336 OW           7.7040    -0.9630   -60.5440 OW            1 RES     
   11337 HW1          7.6030    -1.9570   -60.5250 HW1           1 RES     
   11338 HW2          6.8000    -0.5360   -60.5880 HW2           1 RES     
   11339 OW          29.0580     9.4230   -73.8050 OW            1 RES     
   11340 HW1         28.0760     9.3840   -73.9920 HW1           1 RES     
   11341 HW2         29.3530     8.5630   -73.3890 HW2           1 RES     
   11342 OW          21.3830    14.4950   -60.8150 OW            1 RES     
   11343 HW1         21.5530    15.4780   -60.8760 HW1           1 RES     
   11344 HW2         20.4020    14.3310   -60.7160 HW2           1 RES     
   11345 OW          -3.3810    -0.5740   -61.2750 OW            1 RES     
   11346 HW1         -3.8430     0.1240   -61.8210 HW1           1 RES     
   11347 HW2         -3.2450    -1.3960   -61.8280 HW2           1 RES     
   11348 OW           3.1340    -1.6290   -63.4040 OW            1 RES     
   11349 HW1          2.9320    -2.5460   -63.7470 HW1           1 RES     
   11350 HW2          2.3750    -1.3090   -62.8370 HW2           1 RES     
   11351 OW          28.5920     0.2300   -61.9250 OW            1 RES     
   11352 HW1         29.3360    -0.2140   -61.4270 HW1           1 RES     
   11353 HW2         27.8300     0.4070   -61.3020 HW2           1 RES     
   11354 OW           9.0150     5.9710   -60.7070 OW            1 RES     
   11355 HW1          8.3120     5.2680   -60.8120 HW1           1 RES     
   11356 HW2          9.9170     5.5660   -60.8550 HW2           1 RES     
   11357 OW          35.1320    -3.4190   -70.6540 OW            1 RES     
   11358 HW1         34.5860    -2.8370   -70.0530 HW1           1 RES     
   11359 HW2         35.5880    -2.8540   -71.3420 HW2           1 RES     
   11360 OW          32.2450    31.5170   -71.3050 OW            1 RES     
   11361 HW1         33.1490    31.2410   -71.6270 HW1           1 RES     
   11362 HW2         32.1740    32.5150   -71.3230 HW2           1 RES     
   11363 OW           0.7150    -1.7020   -71.2700 OW            1 RES     
   11364 HW1          0.4850    -0.7310   -71.3330 HW1           1 RES     
   11365 HW2          1.7080    -1.8070   -71.2080 HW2           1 RES     
   11366 OW          -1.7280    14.4360   -60.2270 OW            1 RES     
   11367 HW1         -1.4220    15.3220   -59.8790 HW1           1 RES     
   11368 HW2         -1.5970    13.7380   -59.5230 HW2           1 RES     
   11369 OW          13.7640    26.7240   -74.0330 OW            1 RES     
   11370 HW1         14.7380    26.5010   -74.0200 HW1           1 RES     
   11371 HW2         13.2280    25.8790   -74.0390 HW2           1 RES     
   11372 OW          35.6160    -2.4770   -66.2520 OW            1 RES     
   11373 HW1         35.9290    -1.5290   -66.2020 HW1           1 RES     
   11374 HW2         34.8180    -2.5350   -66.8520 HW2           1 RES     
   11375 OW           9.7710    25.6830   -61.8970 OW            1 RES     
   11376 HW1         10.6580    26.0260   -62.2020 HW1           1 RES     
   11377 HW2          9.0510    26.3170   -62.1820 HW2           1 RES     
   11378 OW           9.8260    26.3300   -69.0640 OW            1 RES     
   11379 HW1         10.0890    27.2870   -69.1750 HW1           1 RES     
   11380 HW2         10.2330    25.9660   -68.2260 HW2           1 RES     
   11381 OW          -4.7180    19.0670   -69.4730 OW            1 RES     
   11382 HW1         -5.7130    18.9820   -69.5300 HW1           1 RES     
   11383 HW2         -4.3060    18.1560   -69.4530 HW2           1 RES     
   11384 OW           2.7730    24.9020   -69.6560 OW            1 RES     
   11385 HW1          2.0560    24.5020   -70.2250 HW1           1 RES     
   11386 HW2          2.7870    25.8940   -69.7840 HW2           1 RES     
   11387 OW           3.7400    30.1580   -71.3710 OW            1 RES     
   11388 HW1          4.7340    30.1110   -71.2740 HW1           1 RES     
   11389 HW2          3.3610    29.2330   -71.3840 HW2           1 RES     
   11390 OW           7.0750     7.1730   -72.9830 OW            1 RES     
   11391 HW1          6.2590     7.3200   -73.5410 HW1           1 RES     
   11392 HW2          7.1070     6.2190   -72.6850 HW2           1 RES     
   11393 OW          -6.7690    38.6840   -72.5410 OW            1 RES     
   11394 HW1         -6.0170    39.2210   -72.9220 HW1           1 RES     
   11395 HW2         -6.6930    38.6630   -71.5440 HW2           1 RES     
   11396 OW          43.8710    13.6080   -61.5540 OW            1 RES     
   11397 HW1         44.0510    12.9750   -60.8030 HW1           1 RES     
   11398 HW2         43.9560    13.1250   -62.4260 HW2           1 RES     
   11399 OW          11.4150     3.8170   -67.3860 OW            1 RES     
   11400 HW1         11.8410     4.6940   -67.1640 HW1           1 RES     
   11401 HW2         11.6920     3.1310   -66.7130 HW2           1 RES     
   11402 OW          44.3640    16.4760   -62.5080 OW            1 RES     
   11403 HW1         43.9210    15.5820   -62.5620 HW1           1 RES     
   11404 HW2         44.0250    17.0620   -63.2440 HW2           1 RES     
   11405 OW           4.4610    -0.8350   -58.5960 OW            1 RES     
   11406 HW1          3.9590    -1.6990   -58.5810 HW1           1 RES     
   11407 HW2          3.8140    -0.0730   -58.5510 HW2           1 RES     
   11408 OW          15.1310    35.9790   -74.0210 OW            1 RES     
   11409 HW1         14.2820    36.5060   -74.0390 HW1           1 RES     
   11410 HW2         14.9160    35.0020   -74.0110 HW2           1 RES     
   11411 OW          -3.0310    11.7850   -73.3070 OW            1 RES     
   11412 HW1         -3.7680    12.3450   -73.6830 HW1           1 RES     
   11413 HW2         -2.3470    11.6140   -74.0160 HW2           1 RES     
   11414 OW          32.8490    12.9020   -58.6490 OW            1 RES     
   11415 HW1         33.3500    12.1530   -59.0820 HW1           1 RES     
   11416 HW2         33.4110    13.7290   -58.6610 HW2           1 RES     
   11417 OW          45.1050    26.9460   -69.0140 OW            1 RES     
   11418 HW1         44.8070    27.8690   -68.7750 HW1           1 RES     
   11419 HW2         44.8460    26.7460   -69.9590 HW2           1 RES     
   11420 OW          41.2980    20.8480   -59.4680 OW            1 RES     
   11421 HW1         41.3880    20.7570   -60.4600 HW1           1 RES     
   11422 HW2         40.5280    20.2950   -59.1500 HW2           1 RES     
   11423 OW          22.4360    19.5810   -69.0930 OW            1 RES     
   11424 HW1         21.8470    19.6600   -69.8970 HW1           1 RES     
   11425 HW2         22.0420    18.9190   -68.4550 HW2           1 RES     
   11426 OW          11.4500    23.0560   -60.0900 OW            1 RES     
   11427 HW1         11.6160    22.5790   -59.2280 HW1           1 RES     
   11428 HW2         10.4660    23.1830   -60.2180 HW2           1 RES     
   11429 OW          -1.4580    35.0080   -65.3650 OW            1 RES     
   11430 HW1         -2.2930    34.5710   -65.0320 HW1           1 RES     
   11431 HW2         -0.9700    35.4240   -64.5970 HW2           1 RES     
   11432 OW          17.8670    35.6840   -69.7670 OW            1 RES     
   11433 HW1         17.8160    35.9870   -68.8160 HW1           1 RES     
   11434 HW2         18.4670    34.8870   -69.8330 HW2           1 RES     
   11435 OW          38.4410     7.0340   -59.2950 OW            1 RES     
   11436 HW1         37.4760     7.2430   -59.1440 HW1           1 RES     
   11437 HW2         38.9870     7.4190   -58.5510 HW2           1 RES     
   11438 OW          24.6070    23.6700   -73.7730 OW            1 RES     
   11439 HW1         25.0160    22.7970   -74.0390 HW1           1 RES     
   11440 HW2         23.6110    23.5870   -73.7760 HW2           1 RES     
   11441 OW          -0.2890     4.9950   -68.1420 OW            1 RES     
   11442 HW1         -0.6710     4.2570   -68.6970 HW1           1 RES     
   11443 HW2         -0.6360     4.9230   -67.2060 HW2           1 RES     
   11444 OW          -3.0400    34.0800   -69.3080 OW            1 RES     
   11445 HW1         -4.0290    34.1980   -69.2260 HW1           1 RES     
   11446 HW2         -2.6350    34.9110   -69.6890 HW2           1 RES     
   11447 OW           2.1600    31.9810   -69.9990 OW            1 RES     
   11448 HW1          3.0980    32.3030   -69.8800 HW1           1 RES     
   11449 HW2          2.1430    30.9810   -69.9670 HW2           1 RES     
   11450 OW          25.8840    14.7690   -60.4630 OW            1 RES     
   11451 HW1         25.6860    15.5140   -61.0990 HW1           1 RES     
   11452 HW2         25.6680    15.0590   -59.5300 HW2           1 RES     
   11453 OW           4.8970    15.2730   -63.2280 OW            1 RES     
   11454 HW1          4.6530    14.3230   -63.4190 HW1           1 RES     
   11455 HW2          4.0900    15.8540   -63.3400 HW2           1 RES     
   11456 OW          35.3900    -0.8330   -70.4950 OW            1 RES     
   11457 HW1         35.7040    -0.0630   -69.9410 HW1           1 RES     
   11458 HW2         34.5800    -0.5620   -71.0160 HW2           1 RES     
   11459 OW          29.2100     7.2270   -59.4700 OW            1 RES     
   11460 HW1         29.9860     6.7660   -59.0420 HW1           1 RES     
   11461 HW2         28.4450     7.2620   -58.8260 HW2           1 RES     
   11462 OW          25.7800     2.0580   -69.0840 OW            1 RES     
   11463 HW1         25.2380     2.8600   -69.3330 HW1           1 RES     
   11464 HW2         25.9020     2.0320   -68.0920 HW2           1 RES     
   11465 OW          19.1300     4.0930   -68.5290 OW            1 RES     
   11466 HW1         18.8260     3.2510   -68.9720 HW1           1 RES     
   11467 HW2         20.0600     4.3100   -68.8260 HW2           1 RES     
   11468 OW          10.7440    21.5180   -66.3910 OW            1 RES     
   11469 HW1         11.5940    21.0050   -66.2760 HW1           1 RES     
   11470 HW2          9.9640    20.9070   -66.2600 HW2           1 RES     
   11471 OW          37.3530    30.5070   -71.6360 OW            1 RES     
   11472 HW1         36.7410    29.9840   -71.0450 HW1           1 RES     
   11473 HW2         37.3950    30.0780   -72.5380 HW2           1 RES     
   11474 OW          10.4220    17.9540   -70.2120 OW            1 RES     
   11475 HW1         10.4420    18.2110   -69.2470 HW1           1 RES     
   11476 HW2          9.5060    17.6310   -70.4530 HW2           1 RES     
   11477 OW          25.9490    33.2650   -62.8940 OW            1 RES     
   11478 HW1         26.9380    33.1810   -63.0130 HW1           1 RES     
   11479 HW2         25.4960    32.4650   -63.2870 HW2           1 RES     
   11480 OW          10.7460    20.5800   -64.1590 OW            1 RES     
   11481 HW1          9.8420    20.1540   -64.1600 HW1           1 RES     
   11482 HW2         10.6470    21.5750   -64.1350 HW2           1 RES     
   11483 OW          16.3220    33.5370   -72.2710 OW            1 RES     
   11484 HW1         16.5020    34.5050   -72.4420 HW1           1 RES     
   11485 HW2         17.1830    33.0660   -72.0780 HW2           1 RES     
   11486 OW          41.0120     8.9370   -68.7250 OW            1 RES     
   11487 HW1         41.5490     8.5720   -67.9660 HW1           1 RES     
   11488 HW2         40.0480     8.9790   -68.4620 HW2           1 RES     
   11489 OW          14.9930    29.2280   -66.5220 OW            1 RES     
   11490 HW1         14.0240    29.3410   -66.7370 HW1           1 RES     
   11491 HW2         15.1400    29.3940   -65.5460 HW2           1 RES     
   11492 OW          -2.4050    16.9280   -65.9870 OW            1 RES     
   11493 HW1         -1.4910    16.5690   -66.1710 HW1           1 RES     
   11494 HW2         -2.4350    17.9000   -66.2210 HW2           1 RES     
   11495 OW          -3.7130    14.3230   -66.2960 OW            1 RES     
   11496 HW1         -3.8030    14.7400   -65.3920 HW1           1 RES     
   11497 HW2         -3.6580    15.0410   -66.9910 HW2           1 RES     
   11498 OW          42.8990    37.5410   -60.3800 OW            1 RES     
   11499 HW1         43.6360    38.1110   -60.0190 HW1           1 RES     
   11500 HW2         42.3440    38.0760   -61.0160 HW2           1 RES     
   11501 OW          24.5830    39.0700   -62.5520 OW            1 RES     
   11502 HW1         23.8480    39.6160   -62.1520 HW1           1 RES     
   11503 HW2         25.2730    39.6770   -62.9460 HW2           1 RES     
   11504 OW          12.4540    -0.0640   -73.9600 OW            1 RES     
   11505 HW1         12.2430    -0.9190   -73.4860 HW1           1 RES     
   11506 HW2         13.3600     0.2570   -73.6830 HW2           1 RES     
   11507 OW          29.7720    38.3990   -63.6270 OW            1 RES     
   11508 HW1         29.9470    39.3330   -63.9360 HW1           1 RES     
   11509 HW2         30.6410    37.9430   -63.4340 HW2           1 RES     
   11510 OW          11.2730    32.5340   -69.7410 OW            1 RES     
   11511 HW1         10.2800    32.6290   -69.7900 HW1           1 RES     
   11512 HW2         11.5160    31.5630   -69.7480 HW2           1 RES     
   11513 OW           3.4350    20.6810   -69.4220 OW            1 RES     
   11514 HW1          3.1680    20.3450   -68.5190 HW1           1 RES     
   11515 HW2          2.6180    20.8190   -69.9820 HW2           1 RES     
   11516 OW          19.9970    30.3240   -66.1000 OW            1 RES     
   11517 HW1         20.3170    30.9140   -65.3590 HW1           1 RES     
   11518 HW2         19.1660    30.7120   -66.5000 HW2           1 RES     
   11519 OW          20.6170    27.0030   -71.9120 OW            1 RES     
   11520 HW1         20.0790    27.5280   -71.2540 HW1           1 RES     
   11521 HW2         20.0170    26.3740   -72.4080 HW2           1 RES     
   11522 OW          10.7840    29.4210   -69.7690 OW            1 RES     
   11523 HW1         10.0930    29.9610   -70.2470 HW1           1 RES     
   11524 HW2         11.2680    28.8420   -70.4260 HW2           1 RES     
   11525 OW          43.4860    13.5590   -68.3550 OW            1 RES     
   11526 HW1         43.1380    12.6320   -68.4880 HW1           1 RES     
   11527 HW2         44.4840    13.5530   -68.4140 HW2           1 RES     
   11528 OW          18.6790    12.4850   -62.1540 OW            1 RES     
   11529 HW1         19.0470    13.4140   -62.1860 HW1           1 RES     
   11530 HW2         19.1550    11.9140   -62.8240 HW2           1 RES     
   11531 OW          -4.4670    27.3250   -66.1180 OW            1 RES     
   11532 HW1         -4.2880    28.2300   -66.5030 HW1           1 RES     
   11533 HW2         -4.4550    27.3790   -65.1190 HW2           1 RES     
   11534 OW           2.4570    17.6370   -62.6640 OW            1 RES     
   11535 HW1          1.8020    17.1570   -63.2470 HW1           1 RES     
   11536 HW2          2.2830    17.4060   -61.7060 HW2           1 RES     
   11537 OW          22.4130    22.7130   -70.2790 OW            1 RES     
   11538 HW1         21.9040    21.8870   -70.5200 HW1           1 RES     
   11539 HW2         22.0440    23.4920   -70.7870 HW2           1 RES     
   11540 OW          23.3130     1.7770   -59.7290 OW            1 RES     
   11541 HW1         22.5860     2.0150   -59.0870 HW1           1 RES     
   11542 HW2         23.6910     0.8820   -59.4890 HW2           1 RES     
   11543 OW          -0.1950    40.0050   -66.9930 OW            1 RES     
   11544 HW1         -1.0270    40.2760   -66.5100 HW1           1 RES     
   11545 HW2          0.5590    39.9240   -66.3410 HW2           1 RES     
   11546 OW          31.1710    34.1180   -62.6900 OW            1 RES     
   11547 HW1         30.2110    34.3450   -62.8460 HW1           1 RES     
   11548 HW2         31.3730    34.1730   -61.7120 HW2           1 RES     
   11549 OW          22.4580    16.9540   -72.8260 OW            1 RES     
   11550 HW1         21.8390    16.1850   -72.6740 HW1           1 RES     
   11551 HW2         21.9420    17.8100   -72.7930 HW2           1 RES     
   11552 OW          -5.0790    -3.6930   -66.7320 OW            1 RES     
   11553 HW1         -5.9200    -4.2220   -66.8410 HW1           1 RES     
   11554 HW2         -4.3080    -4.3160   -66.5950 HW2           1 RES     
   11555 OW          36.2340    29.2620   -65.2460 OW            1 RES     
   11556 HW1         35.6930    30.1020   -65.2930 HW1           1 RES     
   11557 HW2         35.6710    28.4860   -65.5320 HW2           1 RES     
   11558 OW           9.2680    35.5210   -62.6010 OW            1 RES     
   11559 HW1          9.4360    35.4640   -61.6170 HW1           1 RES     
   11560 HW2          9.0560    34.6100   -62.9560 HW2           1 RES     
   11561 OW          37.9010    22.4080   -70.5850 OW            1 RES     
   11562 HW1         38.3700    22.9250   -71.3000 HW1           1 RES     
   11563 HW2         38.1720    21.4460   -70.6360 HW2           1 RES     
   11564 OW          12.7700    21.8680   -62.3600 OW            1 RES     
   11565 HW1         12.8320    21.5540   -63.3070 HW1           1 RES     
   11566 HW2         11.9430    22.4190   -62.2440 HW2           1 RES     
   11567 OW           5.9680    35.6620   -70.3050 OW            1 RES     
   11568 HW1          5.0100    35.5770   -70.5770 HW1           1 RES     
   11569 HW2          6.2960    34.7840   -69.9570 HW2           1 RES     
   11570 OW           2.5040    21.4440   -59.3200 OW            1 RES     
   11571 HW1          1.5170    21.3160   -59.2340 HW1           1 RES     
   11572 HW2          2.9450    20.5570   -59.4590 HW2           1 RES     
   11573 OW          -3.3600     6.9250   -70.8550 OW            1 RES     
   11574 HW1         -2.4750     6.9520   -71.3190 HW1           1 RES     
   11575 HW2         -3.8540     7.7770   -71.0300 HW2           1 RES     
   11576 OW           6.8110    26.2730   -72.1620 OW            1 RES     
   11577 HW1          6.5950    26.5550   -73.0960 HW1           1 RES     
   11578 HW2          7.8030    26.2710   -72.0350 HW2           1 RES     
   11579 OW          -2.7190    26.4970   -59.1930 OW            1 RES     
   11580 HW1         -2.5630    26.9460   -60.0730 HW1           1 RES     
   11581 HW2         -2.0000    26.7630   -58.5510 HW2           1 RES     
   11582 OW          15.4620     5.2030   -73.4150 OW            1 RES     
   11583 HW1         15.1890     4.4710   -74.0390 HW1           1 RES     
   11584 HW2         14.7240     5.8740   -73.3450 HW2           1 RES     
   11585 OW          38.9250    18.5410   -72.2630 OW            1 RES     
   11586 HW1         39.8380    18.6980   -72.6380 HW1           1 RES     
   11587 HW2         38.6800    19.2950   -71.6530 HW2           1 RES     
   11588 OW          11.6790     9.1730   -60.5820 OW            1 RES     
   11589 HW1         11.7270     9.5180   -61.5180 HW1           1 RES     
   11590 HW2         12.2830     9.7120   -59.9960 HW2           1 RES     
   11591 OW          36.9130    24.9240   -62.5380 OW            1 RES     
   11592 HW1         36.2730    24.4570   -61.9300 HW1           1 RES     
   11593 HW2         36.4150    25.3060   -63.3170 HW2           1 RES     
   11594 OW          26.7640    30.3390   -61.9050 OW            1 RES     
   11595 HW1         27.4720    30.3470   -62.6110 HW1           1 RES     
   11596 HW2         26.4840    31.2770   -61.7020 HW2           1 RES     
   11597 OW          33.8180    11.8460   -62.4920 OW            1 RES     
   11598 HW1         33.8340    12.7280   -62.0220 HW1           1 RES     
   11599 HW2         33.0440    11.3060   -62.1610 HW2           1 RES     
   11600 OW          16.2490     2.0610   -68.6410 OW            1 RES     
   11601 HW1         15.4910     1.7130   -68.0910 HW1           1 RES     
   11602 HW2         16.9140     2.5130   -68.0450 HW2           1 RES     
   11603 OW           0.0570    39.0130   -58.9630 OW            1 RES     
   11604 HW1          0.8140    39.6640   -58.9550 HW1           1 RES     
   11605 HW2         -0.7820    39.4730   -58.6730 HW2           1 RES     
   11606 OW          19.7860     2.9360   -59.0570 OW            1 RES     
   11607 HW1         19.4560     2.0060   -59.2160 HW1           1 RES     
   11608 HW2         19.0700     3.4730   -58.6100 HW2           1 RES     
   11609 OW          30.9210    38.3260   -59.8690 OW            1 RES     
   11610 HW1         31.5320    37.5850   -60.1480 HW1           1 RES     
   11611 HW2         30.1240    38.3460   -60.4720 HW2           1 RES     
   11612 OW          40.8120    29.3630   -61.7100 OW            1 RES     
   11613 HW1         41.4790    28.8150   -62.2140 HW1           1 RES     
   11614 HW2         40.9900    30.3340   -61.8670 HW2           1 RES     
   11615 OW          21.0090    38.0720   -73.9030 OW            1 RES     
   11616 HW1         21.9780    38.3060   -73.9640 HW1           1 RES     
   11617 HW2         20.4570    38.8950   -74.0380 HW2           1 RES     
   11618 OW          22.9070    42.2380   -63.4640 OW            1 RES     
   11619 HW1         23.5740    42.6900   -62.8730 HW1           1 RES     
   11620 HW2         22.9480    41.2490   -63.3200 HW2           1 RES     
   11621 OW          -3.0900     7.4820   -74.0390 OW            1 RES     
   11622 HW1         -2.3820     6.7770   -74.0170 HW1           1 RES     
   11623 HW2         -3.6220     7.4480   -73.1920 HW2           1 RES     
   11624 OW          28.4250     8.1750   -68.3190 OW            1 RES     
   11625 HW1         29.0510     8.9140   -68.5650 HW1           1 RES     
   11626 HW2         27.5360     8.5590   -68.0680 HW2           1 RES     
   11627 OW           5.9610    24.6100   -67.0230 OW            1 RES     
   11628 HW1          6.9180    24.8800   -67.1270 HW1           1 RES     
   11629 HW2          5.9140    23.6660   -66.6960 HW2           1 RES     
   11630 OW          33.0660    39.8400   -63.2950 OW            1 RES     
   11631 HW1         33.3220    39.3600   -62.4560 HW1           1 RES     
   11632 HW2         32.2820    39.3830   -63.7150 HW2           1 RES     
   11633 OW          29.5200    32.5040   -61.8590 OW            1 RES     
   11634 HW1         30.1430    32.0350   -62.4840 HW1           1 RES     
   11635 HW2         28.6930    31.9550   -61.7380 HW2           1 RES     
   11636 OW          24.7030     6.8400   -62.0840 OW            1 RES     
   11637 HW1         24.6040     6.5910   -61.1210 HW1           1 RES     
   11638 HW2         24.1730     7.6670   -62.2710 HW2           1 RES     
   11639 OW          42.5070    43.1830   -65.7690 OW            1 RES     
   11640 HW1         41.5120    43.1310   -65.6860 HW1           1 RES     
   11641 HW2         42.8560    42.3240   -66.1440 HW2           1 RES     
   11642 OW          11.9840    -1.4790   -68.9970 OW            1 RES     
   11643 HW1         11.1350    -1.8290   -69.3910 HW1           1 RES     
   11644 HW2         12.4280    -2.2020   -68.4660 HW2           1 RES     
   11645 OW          37.7960    20.1920   -66.2260 OW            1 RES     
   11646 HW1         38.6870    20.5940   -66.0200 HW1           1 RES     
   11647 HW2         37.1190    20.9200   -66.3360 HW2           1 RES     
   11648 OW          39.4880     5.2970   -60.1500 OW            1 RES     
   11649 HW1         39.9140     5.0650   -61.0230 HW1           1 RES     
   11650 HW2         39.7480     4.6200   -59.4610 HW2           1 RES     
   11651 OW          17.3070    11.4150   -63.9090 OW            1 RES     
   11652 HW1         17.7560    11.8720   -64.6760 HW1           1 RES     
   11653 HW2         16.8530    12.0950   -63.3340 HW2           1 RES     
   11654 OW          35.2990    16.7620   -70.9500 OW            1 RES     
   11655 HW1         35.1050    17.3080   -70.1350 HW1           1 RES     
   11656 HW2         34.6690    17.0210   -71.6820 HW2           1 RES     
   11657 OW          -2.5700     4.4150   -69.8880 OW            1 RES     
   11658 HW1         -3.5480     4.4270   -69.6830 HW1           1 RES     
   11659 HW2         -2.2060     5.3460   -69.8370 HW2           1 RES     
   11660 OW          41.2640    15.4790   -73.6440 OW            1 RES     
   11661 HW1         40.2740    15.3900   -73.5400 HW1           1 RES     
   11662 HW2         41.4910    16.4230   -73.8810 HW2           1 RES     
   11663 OW          42.3150    35.1510   -62.2420 OW            1 RES     
   11664 HW1         42.5520    34.3300   -62.7600 HW1           1 RES     
   11665 HW2         43.1230    35.7330   -62.1500 HW2           1 RES     
   11666 OW          38.6000    30.9040   -59.0480 OW            1 RES     
   11667 HW1         38.8810    31.8020   -58.7110 HW1           1 RES     
   11668 HW2         37.6030    30.8670   -59.1080 HW2           1 RES     
   11669 OW          17.2560    42.0280   -70.8530 OW            1 RES     
   11670 HW1         16.4020    41.5280   -70.9890 HW1           1 RES     
   11671 HW2         17.1650    42.9520   -71.2260 HW2           1 RES     
   11672 OW           7.3060     4.4830   -69.6370 OW            1 RES     
   11673 HW1          7.6240     5.1050   -70.3520 HW1           1 RES     
   11674 HW2          6.4290     4.8050   -69.2800 HW2           1 RES     
   11675 OW          44.8990    -2.4460   -60.2730 OW            1 RES     
   11676 HW1         45.1090    -2.5240   -61.2470 HW1           1 RES     
   11677 HW2         44.1100    -3.0200   -60.0540 HW2           1 RES     
   11678 OW          29.2240     4.6440   -58.9870 OW            1 RES     
   11679 HW1         28.3630     4.1500   -59.1060 HW1           1 RES     
   11680 HW2         29.9900     4.0100   -59.0960 HW2           1 RES     
   11681 OW          41.9430    24.0270   -67.5470 OW            1 RES     
   11682 HW1         42.8930    24.0410   -67.2350 HW1           1 RES     
   11683 HW2         41.6770    23.0880   -67.7640 HW2           1 RES     
   11684 OW          -1.2220    37.9350   -68.0050 OW            1 RES     
   11685 HW1         -0.2640    37.9300   -67.7200 HW1           1 RES     
   11686 HW2         -1.7150    37.2040   -67.5310 HW2           1 RES     
   11687 OW          41.9680    41.4530   -71.5530 OW            1 RES     
   11688 HW1         42.9610    41.3460   -71.5610 HW1           1 RES     
   11689 HW2         41.5610    40.8440   -72.2350 HW2           1 RES     
   11690 OW          36.9190    26.4380   -72.2600 OW            1 RES     
   11691 HW1         35.9760    26.6930   -72.4710 HW1           1 RES     
   11692 HW2         36.9540    26.0000   -71.3620 HW2           1 RES     
   11693 OW          38.7070    37.4730   -70.7820 OW            1 RES     
   11694 HW1         38.8970    36.4980   -70.8890 HW1           1 RES     
   11695 HW2         39.5170    37.9340   -70.4200 HW2           1 RES     
   11696 OW          37.4550    16.1670   -63.7070 OW            1 RES     
   11697 HW1         37.7960    15.2430   -63.8740 HW1           1 RES     
   11698 HW2         36.4560    16.1490   -63.6470 HW2           1 RES     
   11699 OW          44.5400     2.9500   -69.1460 OW            1 RES     
   11700 HW1         45.1050     3.7730   -69.1060 HW1           1 RES     
   11701 HW2         45.1080     2.1650   -69.3950 HW2           1 RES     
   11702 OW          31.9680    20.2460   -70.3630 OW            1 RES     
   11703 HW1         31.2860    19.8140   -69.7730 HW1           1 RES     
   11704 HW2         32.2500    21.1190   -69.9650 HW2           1 RES     
   11705 OW           0.4560    32.4330   -59.5520 OW            1 RES     
   11706 HW1          0.4920    32.1810   -58.5860 HW1           1 RES     
   11707 HW2          0.7280    31.6490   -60.1120 HW2           1 RES     
   11708 OW          32.6050    27.2170   -59.3050 OW            1 RES     
   11709 HW1         31.9320    26.5350   -59.0240 HW1           1 RES     
   11710 HW2         33.2450    27.3840   -58.5550 HW2           1 RES     
   11711 OW          35.8210    35.8530   -64.4810 OW            1 RES     
   11712 HW1         35.5790    34.9910   -64.9240 HW1           1 RES     
   11713 HW2         35.7770    36.5960   -65.1500 HW2           1 RES     
   11714 OW          39.3270     0.6040   -59.0740 OW            1 RES     
   11715 HW1         40.1790     0.6410   -58.5510 HW1           1 RES     
   11716 HW2         38.6360     0.1040   -58.5510 HW2           1 RES     
   11717 OW           3.5000     2.7770   -63.2430 OW            1 RES     
   11718 HW1          2.9200     2.3200   -62.5690 HW1           1 RES     
   11719 HW2          3.1710     3.7110   -63.3870 HW2           1 RES     
   11720 OW           2.7430    37.1490   -62.5650 OW            1 RES     
   11721 HW1          1.8110    36.8430   -62.7550 HW1           1 RES     
   11722 HW2          2.7770    37.5700   -61.6580 HW2           1 RES     
   11723 OW          23.6660    38.1290   -64.4630 OW            1 RES     
   11724 HW1         22.9490    37.4900   -64.1870 HW1           1 RES     
   11725 HW2         24.4780    37.6190   -64.7470 HW2           1 RES     
   11726 OW          42.2160     6.3940   -58.7980 OW            1 RES     
   11727 HW1         41.2520     6.1300   -58.7900 HW1           1 RES     
   11728 HW2         42.2920     7.3840   -58.6810 HW2           1 RES     
   11729 OW           1.1530     5.2220   -64.5210 OW            1 RES     
   11730 HW1          2.0780     5.5910   -64.4420 HW1           1 RES     
   11731 HW2          0.5810     5.8600   -65.0370 HW2           1 RES     
   11732 OW          21.7900     8.1450   -72.6300 OW            1 RES     
   11733 HW1         21.8930     8.8280   -71.9080 HW1           1 RES     
   11734 HW2         22.6780     7.7310   -72.8280 HW2           1 RES     
   11735 OW          13.3000    18.5260   -62.9040 OW            1 RES     
   11736 HW1         13.0720    17.5580   -62.7990 HW1           1 RES     
   11737 HW2         14.2360    18.6130   -63.2470 HW2           1 RES     
   11738 OW           6.3950    29.1530   -68.5950 OW            1 RES     
   11739 HW1          5.7090    28.4290   -68.5250 HW1           1 RES     
   11740 HW2          5.9410    30.0280   -68.7650 HW2           1 RES     
   11741 OW          38.8620    30.4380   -61.2670 OW            1 RES     
   11742 HW1         37.8870    30.4680   -61.4850 HW1           1 RES     
   11743 HW2         39.1990    31.3660   -61.1130 HW2           1 RES     
   11744 OW           9.8230    41.1290   -68.2740 OW            1 RES     
   11745 HW1          9.1910    40.5500   -67.7600 HW1           1 RES     
   11746 HW2          9.7380    40.9310   -69.2500 HW2           1 RES     
   11747 OW          37.8790     6.9840   -67.8630 OW            1 RES     
   11748 HW1         37.7390     7.9500   -67.6460 HW1           1 RES     
   11749 HW2         37.0160     6.5830   -68.1730 HW2           1 RES     
   11750 OW          -6.2370    10.2020   -70.0980 OW            1 RES     
   11751 HW1         -6.7730     9.4330   -69.7530 HW1           1 RES     
   11752 HW2         -5.5110     9.8620   -70.6970 HW2           1 RES     
   11753 OW          27.6820    12.1170   -68.5830 OW            1 RES     
   11754 HW1         27.8500    11.5280   -67.7930 HW1           1 RES     
   11755 HW2         26.7440    12.4630   -68.5480 HW2           1 RES     
   11756 OW          -4.7190     2.5160   -70.9550 OW            1 RES     
   11757 HW1         -4.6650     1.6440   -70.4690 HW1           1 RES     
   11758 HW2         -5.6510     2.8730   -70.8960 HW2           1 RES     
   11759 OW          16.4340    25.2350   -59.5340 OW            1 RES     
   11760 HW1         16.6090    25.2000   -58.5510 HW1           1 RES     
   11761 HW2         16.2090    24.3190   -59.8670 HW2           1 RES     
   11762 OW          21.9680    -4.3160   -59.0090 OW            1 RES     
   11763 HW1         22.1290    -4.2630   -59.9940 HW1           1 RES     
   11764 HW2         22.4540    -3.5700   -58.5510 HW2           1 RES     
   11765 OW          17.6580     2.2550   -65.9450 OW            1 RES     
   11766 HW1         17.9200     3.2170   -66.0230 HW1           1 RES     
   11767 HW2         16.6800     2.1910   -65.7440 HW2           1 RES     
   11768 OW          -3.8220     2.4110   -66.0890 OW            1 RES     
   11769 HW1         -3.8790     2.6330   -65.1160 HW1           1 RES     
   11770 HW2         -3.3450     3.1450   -66.5720 HW2           1 RES     
   11771 OW          42.3700    -3.2430   -68.7170 OW            1 RES     
   11772 HW1         42.3270    -3.1990   -67.7190 HW1           1 RES     
   11773 HW2         41.5930    -3.7710   -69.0610 HW2           1 RES     
   11774 OW          -0.2300    13.6120   -65.7400 OW            1 RES     
   11775 HW1          0.2860    14.3580   -66.1590 HW1           1 RES     
   11776 HW2          0.4040    12.9120   -65.4090 HW2           1 RES     
   11777 OW          -4.0370    31.7180   -72.7990 OW            1 RES     
   11778 HW1         -3.5870    31.0630   -72.1920 HW1           1 RES     
   11779 HW2         -4.7300    31.2470   -73.3440 HW2           1 RES     
   11780 OW          19.5370    33.3250   -66.3610 OW            1 RES     
   11781 HW1         20.4920    33.4040   -66.6440 HW1           1 RES     
   11782 HW2         19.1960    34.2220   -66.0810 HW2           1 RES     
   11783 OW           6.7110    -2.2630   -68.4690 OW            1 RES     
   11784 HW1          5.9110    -1.7850   -68.8280 HW1           1 RES     
   11785 HW2          6.4470    -3.1820   -68.1740 HW2           1 RES     
   11786 OW          -6.1990    12.7340   -72.6610 OW            1 RES     
   11787 HW1         -5.4360    13.3790   -72.6850 HW1           1 RES     
   11788 HW2         -5.8460    11.7990   -72.6420 HW2           1 RES     
   11789 OW          39.0560    42.5990   -70.6040 OW            1 RES     
   11790 HW1         38.2510    42.1190   -70.2580 HW1           1 RES     
   11791 HW2         39.4930    42.0470   -71.3150 HW2           1 RES     
   11792 OW          -6.7190    41.0290   -70.6840 OW            1 RES     
   11793 HW1         -6.4950    41.9890   -70.5180 HW1           1 RES     
   11794 HW2         -6.7730    40.8630   -71.6690 HW2           1 RES     
   11795 OW          23.2200     0.8050   -67.3720 OW            1 RES     
   11796 HW1         22.2700     1.1090   -67.3030 HW1           1 RES     
   11797 HW2         23.8140     1.5960   -67.5140 HW2           1 RES     
   11798 OW          27.4920    27.3720   -62.3540 OW            1 RES     
   11799 HW1         28.2370    28.0350   -62.2850 HW1           1 RES     
   11800 HW2         27.4150    27.0530   -63.2990 HW2           1 RES     
   11801 OW          12.8940    11.2860   -62.1130 OW            1 RES     
   11802 HW1         13.3250    12.0590   -62.5770 HW1           1 RES     
   11803 HW2         12.6600    11.5460   -61.1760 HW2           1 RES     
   11804 OW          -3.2330    30.7210   -66.0390 OW            1 RES     
   11805 HW1         -3.2140    29.8730   -65.5100 HW1           1 RES     
   11806 HW2         -4.1820    30.9840   -66.2140 HW2           1 RES     
   11807 OW          22.3150     9.6360   -67.1560 OW            1 RES     
   11808 HW1         21.4840    10.1180   -67.4320 HW1           1 RES     
   11809 HW2         22.9930    10.2980   -66.8350 HW2           1 RES     
   11810 OW           7.9400    36.6920   -71.3280 OW            1 RES     
   11811 HW1          7.9900    35.7000   -71.2210 HW1           1 RES     
   11812 HW2          8.8180    37.0380   -71.6590 HW2           1 RES     
   11813 OW          30.4810    17.5910   -72.6320 OW            1 RES     
   11814 HW1         30.4270    18.5450   -72.9240 HW1           1 RES     
   11815 HW2         31.3940    17.2330   -72.8300 HW2           1 RES     
   11816 OW          -2.7880     5.2960   -62.1520 OW            1 RES     
   11817 HW1         -3.3420     4.4650   -62.1950 HW1           1 RES     
   11818 HW2         -1.8540     5.0890   -62.4460 HW2           1 RES     
   11819 OW          19.6800    14.7220   -67.2240 OW            1 RES     
   11820 HW1         18.8430    14.4680   -66.7410 HW1           1 RES     
   11821 HW2         19.9570    15.6440   -66.9500 HW2           1 RES     
   11822 OW           2.1980    11.8870   -72.1150 OW            1 RES     
   11823 HW1          1.5080    11.1720   -72.0100 HW1           1 RES     
   11824 HW2          2.3310    12.3530   -71.2400 HW2           1 RES     
   11825 OW          22.9550     4.9360   -65.0910 OW            1 RES     
   11826 HW1         23.7030     4.9060   -65.7530 HW1           1 RES     
   11827 HW2         23.2020     5.5400   -64.3340 HW2           1 RES     
   11828 OW          17.9550    42.0460   -58.9520 OW            1 RES     
   11829 HW1         17.3520    42.1050   -59.7470 HW1           1 RES     
   11830 HW2         17.9180    41.1210   -58.5730 HW2           1 RES     
   11831 OW          30.3400    -1.2850   -58.8620 OW            1 RES     
   11832 HW1         29.8560    -2.1540   -58.9600 HW1           1 RES     
   11833 HW2         29.7010    -0.5790   -58.5550 HW2           1 RES     
   11834 OW          10.0860    32.9260   -72.0040 OW            1 RES     
   11835 HW1          9.6340    32.0560   -71.8130 HW1           1 RES     
   11836 HW2         11.0760    32.8140   -71.9140 HW2           1 RES     
   11837 OW          39.3030    24.1610   -63.8240 OW            1 RES     
   11838 HW1         39.2490    23.9820   -64.8060 HW1           1 RES     
   11839 HW2         38.9260    25.0670   -63.6280 HW2           1 RES     
   11840 OW           1.9490    27.2800   -67.6060 OW            1 RES     
   11841 HW1          0.9540    27.3720   -67.6140 HW1           1 RES     
   11842 HW2          2.1950    26.3210   -67.4620 HW2           1 RES     
   11843 OW           4.9600    11.2780   -68.5960 OW            1 RES     
   11844 HW1          5.2240    11.0350   -67.6640 HW1           1 RES     
   11845 HW2          4.4890    12.1610   -68.5900 HW2           1 RES     
   11846 OW          17.6480    -1.8990   -65.6800 OW            1 RES     
   11847 HW1         17.4200    -2.7160   -66.2080 HW1           1 RES     
   11848 HW2         17.0810    -1.1340   -65.9860 HW2           1 RES     
   11849 OW          25.5640    12.8410   -65.4460 OW            1 RES     
   11850 HW1         24.7150    12.6290   -65.9290 HW1           1 RES     
   11851 HW2         25.5620    12.3870   -64.5550 HW2           1 RES     
   11852 OW          -5.7850    -2.7660   -61.1410 OW            1 RES     
   11853 HW1         -4.9820    -3.0660   -61.6560 HW1           1 RES     
   11854 HW2         -6.5110    -2.5070   -61.7780 HW2           1 RES     
   11855 OW           4.8450     0.0990   -65.9960 OW            1 RES     
   11856 HW1          4.2710    -0.4510   -66.6020 HW1           1 RES     
   11857 HW2          4.3580     0.9350   -65.7420 HW2           1 RES     
   11858 OW          42.6890    35.3390   -67.4580 OW            1 RES     
   11859 HW1         42.4290    35.1010   -66.5230 HW1           1 RES     
   11860 HW2         43.6830    35.2770   -67.5550 HW2           1 RES     
   11861 OW          18.9800    21.1690   -73.3240 OW            1 RES     
   11862 HW1         18.1200    20.7020   -73.1210 HW1           1 RES     
   11863 HW2         18.8020    22.1380   -73.4920 HW2           1 RES     
   11864 OW          42.1970    17.4880   -69.4320 OW            1 RES     
   11865 HW1         41.7630    17.8260   -68.5980 HW1           1 RES     
   11866 HW2         43.1380    17.8240   -69.4790 HW2           1 RES     
   11867 OW          37.6850    18.0870   -65.0140 OW            1 RES     
   11868 HW1         38.6050    18.4570   -65.1400 HW1           1 RES     
   11869 HW2         37.5440    17.3230   -65.6440 HW2           1 RES     
   11870 OW          -6.0530    31.9060   -64.9600 OW            1 RES     
   11871 HW1         -6.4990    32.7930   -65.0750 HW1           1 RES     
   11872 HW2         -6.6990    31.1770   -65.1880 HW2           1 RES     
   11873 OW          39.3040    25.7390   -59.3330 OW            1 RES     
   11874 HW1         38.9620    26.2590   -58.5510 HW1           1 RES     
   11875 HW2         39.9810    26.2850   -59.8270 HW2           1 RES     
   11876 OW          43.5400     0.2900   -64.0270 OW            1 RES     
   11877 HW1         43.9440     0.3180   -64.9400 HW1           1 RES     
   11878 HW2         43.2820     1.2150   -63.7470 HW2           1 RES     
   11879 OW          26.5060    -3.4620   -58.5510 OW            1 RES     
   11880 HW1         27.4850    -3.3960   -58.7420 HW1           1 RES     
   11881 HW2         26.1490    -4.3160   -58.9300 HW2           1 RES     
   11882 OW          33.7100    -0.1250   -66.5810 OW            1 RES     
   11883 HW1         33.4950    -0.9510   -66.0610 HW1           1 RES     
   11884 HW2         33.0400     0.5870   -66.3680 HW2           1 RES     
   11885 OW           4.9750    11.1660   -70.8840 OW            1 RES     
   11886 HW1          4.4560    12.0140   -70.7850 HW1           1 RES     
   11887 HW2          5.4020    11.1390   -71.7880 HW2           1 RES     
   11888 OW          -3.5620    11.6420   -69.6680 OW            1 RES     
   11889 HW1         -4.4690    11.3140   -69.4060 HW1           1 RES     
   11890 HW2         -3.3630    12.4950   -69.1840 HW2           1 RES     
   11891 OW          29.1030     3.4620   -68.7570 OW            1 RES     
   11892 HW1         29.0630     3.1570   -69.7080 HW1           1 RES     
   11893 HW2         28.9590     2.6800   -68.1500 HW2           1 RES     
   11894 OW          43.5240    25.9940   -64.4830 OW            1 RES     
   11895 HW1         43.8060    25.9120   -63.5280 HW1           1 RES     
   11896 HW2         43.0580    25.1560   -64.7670 HW2           1 RES     
   11897 OW          -4.4090    22.3830   -71.8370 OW            1 RES     
   11898 HW1         -5.3680    22.6640   -71.8420 HW1           1 RES     
   11899 HW2         -4.3460    21.4060   -72.0400 HW2           1 RES     
   11900 OW          24.8840     5.0150   -72.6360 OW            1 RES     
   11901 HW1         25.6140     4.3370   -72.5580 HW1           1 RES     
   11902 HW2         24.8120     5.3200   -73.5860 HW2           1 RES     
   11903 OW          42.9410     4.1730   -60.4250 OW            1 RES     
   11904 HW1         43.5800     4.7430   -59.9090 HW1           1 RES     
   11905 HW2         42.0560     4.6350   -60.4850 HW2           1 RES     
   11906 OW           0.1750    28.6500   -70.8820 OW            1 RES     
   11907 HW1         -0.3060    28.3690   -70.0520 HW1           1 RES     
   11908 HW2          1.1410    28.8020   -70.6720 HW2           1 RES     
   11909 OW          14.3860    -2.4740   -67.3390 OW            1 RES     
   11910 HW1         14.4390    -3.0490   -68.1550 HW1           1 RES     
   11911 HW2         15.1700    -2.6620   -66.7460 HW2           1 RES     
   11912 OW          15.4150    26.9150   -71.0470 OW            1 RES     
   11913 HW1         14.6420    27.5490   -71.0770 HW1           1 RES     
   11914 HW2         15.0740    25.9760   -70.9960 HW2           1 RES     
   11915 OW          27.0500    38.7760   -60.6050 OW            1 RES     
   11916 HW1         26.1700    38.7020   -61.0730 HW1           1 RES     
   11917 HW2         27.6620    39.3630   -61.1350 HW2           1 RES     
   11918 OW          24.7430    33.6100   -73.0870 OW            1 RES     
   11919 HW1         25.1180    33.1680   -73.9010 HW1           1 RES     
   11920 HW2         25.4720    34.0990   -72.6070 HW2           1 RES     
   11921 OW          17.2260     7.6260   -69.0020 OW            1 RES     
   11922 HW1         16.5980     8.2500   -68.5380 HW1           1 RES     
   11923 HW2         17.0050     7.5950   -69.9770 HW2           1 RES     
   11924 OW          17.2230    33.3320   -59.4930 OW            1 RES     
   11925 HW1         18.1030    33.8050   -59.4540 HW1           1 RES     
   11926 HW2         16.6790    33.7000   -60.2480 HW2           1 RES     
   11927 OW           2.7990    37.7340   -69.5380 OW            1 RES     
   11928 HW1          3.2090    37.7250   -70.4490 HW1           1 RES     
   11929 HW2          3.5080    37.5700   -68.8520 HW2           1 RES     
   11930 OW          21.3910    21.5940   -65.2060 OW            1 RES     
   11931 HW1         20.7020    22.1130   -65.7130 HW1           1 RES     
   11932 HW2         22.2860    22.0240   -65.3230 HW2           1 RES     
   11933 OW          16.2330    38.0780   -69.0670 OW            1 RES     
   11934 HW1         17.2270    38.1890   -69.0680 HW1           1 RES     
   11935 HW2         16.0020    37.1390   -69.3230 HW2           1 RES     
   11936 OW           5.1230     3.9300   -58.7540 OW            1 RES     
   11937 HW1          5.3600     4.8950   -58.8650 HW1           1 RES     
   11938 HW2          4.1470     3.8470   -58.5510 HW2           1 RES     
   11939 OW           1.0810    11.5370   -69.6240 OW            1 RES     
   11940 HW1          1.3870    10.5980   -69.7780 HW1           1 RES     
   11941 HW2          1.7890    12.0430   -69.1310 HW2           1 RES     
   11942 OW           6.3600    -2.7540   -73.1240 OW            1 RES     
   11943 HW1          6.8600    -2.0390   -72.6360 HW1           1 RES     
   11944 HW2          7.0080    -3.3710   -73.5700 HW2           1 RES     
   11945 OW          10.7120    27.9540   -61.1270 OW            1 RES     
   11946 HW1         11.4430    27.5610   -60.5690 HW1           1 RES     
   11947 HW2         10.8690    28.9350   -61.2400 HW2           1 RES     
   11948 OW          45.0890    19.2430   -68.3790 OW            1 RES     
   11949 HW1         44.1490    19.5730   -68.4520 HW1           1 RES     
   11950 HW2         45.1090    18.4100   -67.8260 HW2           1 RES     
   11951 OW           0.7360     2.0810   -71.0040 OW            1 RES     
   11952 HW1          1.5570     1.6440   -71.3690 HW1           1 RES     
   11953 HW2         -0.0760     1.6100   -71.3490 HW2           1 RES     
   11954 OW          35.1270    19.9950   -66.8540 OW            1 RES     
   11955 HW1         35.6530    19.9800   -67.7040 HW1           1 RES     
   11956 HW2         35.3890    19.2150   -66.2850 HW2           1 RES     
   11957 OW           7.7090    23.6460   -73.1920 OW            1 RES     
   11958 HW1          7.7750    22.6620   -73.0300 HW1           1 RES     
   11959 HW2          7.0320    23.8210   -73.9070 HW2           1 RES     
   11960 OW           4.8910    31.6950   -73.4720 OW            1 RES     
   11961 HW1          4.9550    30.7010   -73.5620 HW1           1 RES     
   11962 HW2          5.8100    32.0820   -73.3910 HW2           1 RES     
   11963 OW          35.3350    -2.0020   -59.9390 OW            1 RES     
   11964 HW1         34.4820    -2.2760   -59.4950 HW1           1 RES     
   11965 HW2         35.1280    -1.4510   -60.7480 HW2           1 RES     
   11966 OW          33.3650     9.3870   -64.3290 OW            1 RES     
   11967 HW1         34.0170     9.8100   -63.7000 HW1           1 RES     
   11968 HW2         33.3100     8.4060   -64.1430 HW2           1 RES     
   11969 OW          36.1870    33.5940   -63.3360 OW            1 RES     
   11970 HW1         35.9030    32.6690   -63.5880 HW1           1 RES     
   11971 HW2         37.0510    33.8120   -63.7900 HW2           1 RES     
   11972 OW          20.8150    31.8350   -71.9780 OW            1 RES     
   11973 HW1         20.3030    30.9770   -72.0240 HW1           1 RES     
   11974 HW2         21.7940    31.6380   -71.9370 HW2           1 RES     
   11975 OW           5.2890    -2.7880   -65.9370 OW            1 RES     
   11976 HW1          5.7690    -2.0510   -66.4120 HW1           1 RES     
   11977 HW2          4.4230    -2.4430   -65.5750 HW2           1 RES     
   11978 OW          36.3960    33.5750   -69.8350 OW            1 RES     
   11979 HW1         36.8740    32.7460   -69.5480 HW1           1 RES     
   11980 HW2         36.2920    34.1890   -69.0530 HW2           1 RES     
   11981 OW          -6.0570    13.1570   -60.9510 OW            1 RES     
   11982 HW1         -5.0960    12.8910   -61.0130 HW1           1 RES     
   11983 HW2         -6.6360    12.3560   -61.1020 HW2           1 RES     
   11984 OW          41.7480    37.0240   -58.5600 OW            1 RES     
   11985 HW1         40.9870    37.6690   -58.6110 HW1           1 RES     
   11986 HW2         41.3940    36.0890   -58.5510 HW2           1 RES     
   11987 OW          11.8350    22.5340   -68.9230 OW            1 RES     
   11988 HW1         12.6140    22.1360   -68.4410 HW1           1 RES     
   11989 HW2         10.9940    22.3360   -68.4190 HW2           1 RES     
   11990 OW          41.9290    19.8760   -67.8170 OW            1 RES     
   11991 HW1         41.3650    19.6180   -67.0340 HW1           1 RES     
   11992 HW2         42.4460    20.7040   -67.5980 HW2           1 RES     
   11993 OW          36.7560    25.6070   -59.0990 OW            1 RES     
   11994 HW1         37.2490    24.8800   -58.6220 HW1           1 RES     
   11995 HW2         35.9660    25.8890   -58.5540 HW2           1 RES     
   11996 OW           7.9270    19.2350   -70.3550 OW            1 RES     
   11997 HW1          6.9290    19.1880   -70.3510 HW1           1 RES     
   11998 HW2          8.2160    20.1930   -70.3710 HW2           1 RES     
   11999 OW          -4.5180     7.4000   -60.0790 OW            1 RES     
   12000 HW1         -4.8440     8.3400   -59.9910 HW1           1 RES     
   12001 HW2         -5.0880     6.9090   -60.7390 HW2           1 RES     
   12002 OW          25.5820     6.7980   -58.7440 OW            1 RES     
   12003 HW1         24.5950     6.6930   -58.6240 HW1           1 RES     
   12004 HW2         25.9190     6.0950   -59.3700 HW2           1 RES     
   12005 OW           4.9450    29.5700   -63.7960 OW            1 RES     
   12006 HW1          5.7320    29.0730   -64.1580 HW1           1 RES     
   12007 HW2          4.1180    29.0190   -63.9130 HW2           1 RES     
   12008 OW          12.5080    26.5660   -71.8660 OW            1 RES     
   12009 HW1         12.4820    26.6290   -70.8690 HW1           1 RES     
   12010 HW2         12.7060    27.4670   -72.2520 HW2           1 RES     
   12011 OW          11.9870    18.4200   -72.1830 OW            1 RES     
   12012 HW1         12.2300    17.7820   -71.4530 HW1           1 RES     
   12013 HW2         12.6250    19.1900   -72.1790 HW2           1 RES     
   12014 OW          12.7770     6.0080   -71.3280 OW            1 RES     
   12015 HW1         13.7710     6.0950   -71.3740 HW1           1 RES     
   12016 HW2         12.3730     6.3390   -72.1820 HW2           1 RES     
   12017 OW          40.5470    37.3050   -67.1160 OW            1 RES     
   12018 HW1         40.4260    36.3770   -66.7650 HW1           1 RES     
   12019 HW2         41.5030    37.4430   -67.3730 HW2           1 RES     
   12020 OW          24.1870    24.8180   -63.7390 OW            1 RES     
   12021 HW1         24.5250    23.9820   -64.1720 HW1           1 RES     
   12022 HW2         24.2380    24.7220   -62.7440 HW2           1 RES     
   12023 OW          42.7730    31.2060   -66.5930 OW            1 RES     
   12024 HW1         42.8780    31.9690   -67.2300 HW1           1 RES     
   12025 HW2         43.6150    30.6660   -66.5780 HW2           1 RES     
   12026 OW          41.0260    22.9720   -65.6200 OW            1 RES     
   12027 HW1         41.1300    22.0210   -65.9090 HW1           1 RES     
   12028 HW2         41.9220    23.3500   -65.3860 HW2           1 RES     
   12029 OW          20.7480    38.7890   -68.6410 OW            1 RES     
   12030 HW1         21.0720    39.7330   -68.5850 HW1           1 RES     
   12031 HW2         20.1670    38.5880   -67.8520 HW2           1 RES     
   12032 OW          -0.1230    10.6600   -60.1450 OW            1 RES     
   12033 HW1          0.5030    10.8600   -60.8980 HW1           1 RES     
   12034 HW2         -0.5720    11.5040   -59.8510 HW2           1 RES     
   12035 OW          41.1630     7.8960   -73.4720 OW            1 RES     
   12036 HW1         41.6670     7.2240   -74.0140 HW1           1 RES     
   12037 HW2         40.4570     8.3210   -74.0390 HW2           1 RES     
   12038 OW          -2.9380    26.6470   -67.5480 OW            1 RES     
   12039 HW1         -3.7790    26.5010   -68.0670 HW1           1 RES     
   12040 HW2         -2.7280    25.8270   -67.0150 HW2           1 RES     
   12041 OW          38.6010    23.7610   -61.7320 OW            1 RES     
   12042 HW1         39.5290    23.4200   -61.5890 HW1           1 RES     
   12043 HW2         37.9870    22.9910   -61.9100 HW2           1 RES     
   12044 OW          -0.4130    12.8500   -68.5720 OW            1 RES     
   12045 HW1         -1.1490    13.5110   -68.4260 HW1           1 RES     
   12046 HW2          0.2410    12.9070   -67.8180 HW2           1 RES     
   12047 OW          45.1090    22.6410   -69.7320 OW            1 RES     
   12048 HW1         44.9610    21.8330   -69.1620 HW1           1 RES     
   12049 HW2         45.0140    22.3910   -70.6960 HW2           1 RES     
   12050 OW          -2.2050     3.2980   -63.6730 OW            1 RES     
   12051 HW1         -1.8370     3.2670   -64.6020 HW1           1 RES     
   12052 HW2         -2.5160     2.3850   -63.4070 HW2           1 RES     
   12053 OW           0.5540    26.0510   -71.8080 OW            1 RES     
   12054 HW1          1.0430    26.4650   -71.0420 HW1           1 RES     
   12055 HW2         -0.3050    25.6550   -71.4810 HW2           1 RES     
   12056 OW          35.6680     8.8430   -66.8560 OW            1 RES     
   12057 HW1         35.9150     7.9810   -66.4160 HW1           1 RES     
   12058 HW2         34.7110     8.8090   -67.1450 HW2           1 RES     
   12059 OW          28.2480    26.4260   -72.2920 OW            1 RES     
   12060 HW1         28.7110    26.5590   -71.4170 HW1           1 RES     
   12061 HW2         27.8730    27.2970   -72.6080 HW2           1 RES     
   12062 OW          25.7380    16.8590   -62.9570 OW            1 RES     
   12063 HW1         25.2390    17.3420   -62.2380 HW1           1 RES     
   12064 HW2         25.9960    17.5040   -63.6760 HW2           1 RES     
   12065 OW          13.7050    40.2030   -68.7780 OW            1 RES     
   12066 HW1         14.6110    40.0970   -69.1850 HW1           1 RES     
   12067 HW2         13.0840    40.6140   -69.4460 HW2           1 RES     
   12068 OW          42.4960    37.8150   -70.0690 OW            1 RES     
   12069 HW1         42.2660    38.7700   -70.2510 HW1           1 RES     
   12070 HW2         43.4740    37.7370   -69.8780 HW2           1 RES     
   12071 OW          30.1290     2.3590   -62.2670 OW            1 RES     
   12072 HW1         29.2270     2.4080   -61.8380 HW1           1 RES     
   12073 HW2         30.2330     1.4760   -62.7250 HW2           1 RES     
   12074 OW          19.6800    41.6330   -71.9520 OW            1 RES     
   12075 HW1         19.2050    40.8520   -72.3580 HW1           1 RES     
   12076 HW2         20.6110    41.3650   -71.7040 HW2           1 RES     
   12077 OW          18.4090    33.8330   -61.6880 OW            1 RES     
   12078 HW1         18.4210    32.8360   -61.7480 HW1           1 RES     
   12079 HW2         19.3420    34.1720   -61.5620 HW2           1 RES     
   12080 OW           9.7860    25.0420   -73.8890 OW            1 RES     
   12081 HW1          8.8710    25.4240   -73.7620 HW1           1 RES     
   12082 HW2          9.7180    24.0560   -74.0390 HW2           1 RES     
   12083 OW          25.0140    26.3520   -73.6610 OW            1 RES     
   12084 HW1         24.4400    25.8250   -73.0350 HW1           1 RES     
   12085 HW2         24.4860    27.1130   -74.0390 HW2           1 RES     
   12086 OW          36.1590     1.6640   -59.0950 OW            1 RES     
   12087 HW1         36.1940     2.6620   -59.0480 HW1           1 RES     
   12088 HW2         35.2150     1.3700   -59.2430 HW2           1 RES     
   12089 OW          10.6650    31.1840   -74.0390 OW            1 RES     
   12090 HW1         10.3560    32.1350   -74.0390 HW1           1 RES     
   12091 HW2         11.6640    31.1580   -74.0380 HW2           1 RES     
   12092 OW          10.5900    11.6930   -62.6700 OW            1 RES     
   12093 HW1          9.9460    11.0070   -63.0060 HW1           1 RES     
   12094 HW2         10.1220    12.3070   -62.0340 HW2           1 RES     
   12095 OW          -1.7700    36.4220   -58.5510 OW            1 RES     
   12096 HW1         -1.9080    37.4120   -58.5780 HW1           1 RES     
   12097 HW2         -0.7900    36.2210   -58.5720 HW2           1 RES     
   12098 OW          19.1560    40.1530   -63.9120 OW            1 RES     
   12099 HW1         18.7980    40.8840   -64.4920 HW1           1 RES     
   12100 HW2         19.6900    39.5150   -64.4680 HW2           1 RES     
   12101 OW          14.3340    10.5350   -60.1680 OW            1 RES     
   12102 HW1         15.1230    11.1300   -60.3150 HW1           1 RES     
   12103 HW2         14.2870     9.8570   -60.9020 HW2           1 RES     
   12104 OW          31.1700    30.8610   -73.3800 OW            1 RES     
   12105 HW1         30.2220    30.6400   -73.1540 HW1           1 RES     
   12106 HW2         31.7780    30.1730   -72.9830 HW2           1 RES     
   12107 OW          30.8210    38.5390   -74.0390 OW            1 RES     
   12108 HW1         29.8660    38.2440   -74.0070 HW1           1 RES     
   12109 HW2         30.9020    39.4520   -73.6390 HW2           1 RES     
   12110 OW          42.5170     0.1690   -67.7280 OW            1 RES     
   12111 HW1         41.8900     0.9340   -67.5840 HW1           1 RES     
   12112 HW2         42.9440    -0.0810   -66.8590 HW2           1 RES     
   12113 OW          -3.9490    25.3040   -61.5940 OW            1 RES     
   12114 HW1         -4.8920    25.5710   -61.7870 HW1           1 RES     
   12115 HW2         -3.8650    24.3090   -61.6500 HW2           1 RES     
   12116 OW          28.4370    20.2230   -62.5750 OW            1 RES     
   12117 HW1         27.8150    20.8780   -62.1460 HW1           1 RES     
   12118 HW2         28.2720    20.2020   -63.5610 HW2           1 RES     
   12119 OW          10.2300    10.9040   -59.2860 OW            1 RES     
   12120 HW1          9.7350    11.1750   -60.1110 HW1           1 RES     
   12121 HW2          9.5920    10.4880   -58.6360 HW2           1 RES     
   12122 OW           6.1750     4.1180   -63.5880 OW            1 RES     
   12123 HW1          5.6470     4.8410   -63.1450 HW1           1 RES     
   12124 HW2          5.6920     3.2470   -63.4950 HW2           1 RES     
   12125 OW          -2.6610    40.0130   -64.6310 OW            1 RES     
   12126 HW1         -2.8440    39.5210   -65.4810 HW1           1 RES     
   12127 HW2         -3.5270    40.2330   -64.1800 HW2           1 RES     
   12128 OW          28.5900    27.0740   -69.2780 OW            1 RES     
   12129 HW1         29.5350    26.7630   -69.1880 HW1           1 RES     
   12130 HW2         28.3520    27.6500   -68.4960 HW2           1 RES     
   12131 OW          32.9760    28.6360   -65.7000 OW            1 RES     
   12132 HW1         33.4210    29.1660   -66.4200 HW1           1 RES     
   12133 HW2         32.3870    27.9410   -66.1120 HW2           1 RES     
   12134 OW          25.6880    -4.3160   -68.4990 OW            1 RES     
   12135 HW1         26.2010    -3.4720   -68.6570 HW1           1 RES     
   12136 HW2         24.7150    -4.1030   -68.4080 HW2           1 RES     
   12137 OW          14.5840    32.4000   -71.5460 OW            1 RES     
   12138 HW1         14.9440    31.7110   -72.1740 HW1           1 RES     
   12139 HW2         14.0050    33.0410   -72.0500 HW2           1 RES     
   12140 OW          22.2250    30.8190   -61.9710 OW            1 RES     
   12141 HW1         22.2890    31.1860   -62.8990 HW1           1 RES     
   12142 HW2         21.6310    31.4050   -61.4200 HW2           1 RES     
   12143 OW          25.7330    36.1150   -60.6340 OW            1 RES     
   12144 HW1         24.9960    36.7820   -60.7370 HW1           1 RES     
   12145 HW2         26.6160    36.5740   -60.7360 HW2           1 RES     
   12146 OW          32.0470    23.6460   -72.4180 OW            1 RES     
   12147 HW1         32.3810    22.9410   -71.7940 HW1           1 RES     
   12148 HW2         32.1730    23.3430   -73.3630 HW2           1 RES     
   12149 OW           0.0080     5.5720   -70.8450 OW            1 RES     
   12150 HW1          0.0470     5.8670   -71.7990 HW1           1 RES     
   12151 HW2          0.1030     4.5770   -70.7990 HW2           1 RES     
   12152 OW          30.8820    11.3910   -68.4500 OW            1 RES     
   12153 HW1         31.6090    11.7600   -67.8710 HW1           1 RES     
   12154 HW2         30.0070    11.7990   -68.1880 HW2           1 RES     
   12155 OW          14.4130    41.7520   -58.7620 OW            1 RES     
   12156 HW1         13.6720    42.2580   -59.2010 HW1           1 RES     
   12157 HW2         15.2890    42.1800   -58.9870 HW2           1 RES     
   12158 OW           2.4400    43.3130   -65.8940 OW            1 RES     
   12159 HW1          2.7460    42.6920   -66.6140 HW1           1 RES     
   12160 HW2          1.6270    42.9350   -65.4510 HW2           1 RES     
   12161 OW          29.3830    -2.5490   -65.2590 OW            1 RES     
   12162 HW1         28.5820    -2.9020   -64.7750 HW1           1 RES     
   12163 HW2         29.9540    -3.3130   -65.5610 HW2           1 RES     
   12164 OW           7.4430     9.9580   -71.5920 OW            1 RES     
   12165 HW1          7.3970     9.3070   -72.3490 HW1           1 RES     
   12166 HW2          7.5810    10.8810   -71.9530 HW2           1 RES     
   12167 OW          24.5040    14.7370   -67.2630 OW            1 RES     
   12168 HW1         23.6960    14.1640   -67.4000 HW1           1 RES     
   12169 HW2         24.4160    15.5730   -67.8050 HW2           1 RES     
   12170 OW          31.4880    38.8580   -69.7190 OW            1 RES     
   12171 HW1         32.3920    39.2430   -69.9030 HW1           1 RES     
   12172 HW2         30.8530    39.5950   -69.4830 HW2           1 RES     
   12173 OW          19.0750    33.7890   -63.9280 OW            1 RES     
   12174 HW1         18.4870    34.5970   -63.9140 HW1           1 RES     
   12175 HW2         20.0340    34.0740   -63.9200 HW2           1 RES     
   12176 OW          24.2790    29.6650   -63.9550 OW            1 RES     
   12177 HW1         23.3120    29.4620   -63.8050 HW1           1 RES     
   12178 HW2         24.4120    30.6560   -63.9830 HW2           1 RES     
   12179 OW          15.6540    25.5940   -62.1000 OW            1 RES     
   12180 HW1         16.1650    26.1390   -62.7640 HW1           1 RES     
   12181 HW2         15.0160    26.1830   -61.6040 HW2           1 RES     
   12182 OW          13.6030    19.8620   -67.5010 OW            1 RES     
   12183 HW1         14.5320    19.4930   -67.5040 HW1           1 RES     
   12184 HW2         12.9490    19.1190   -67.3550 HW2           1 RES     
   12185 OW          17.8120    36.8120   -62.1690 OW            1 RES     
   12186 HW1         18.2170    37.6180   -61.7380 HW1           1 RES     
   12187 HW2         18.5000    36.0890   -62.2370 HW2           1 RES     
   12188 OW          32.9890    41.1920   -61.2830 OW            1 RES     
   12189 HW1         33.1270    42.1710   -61.4290 HW1           1 RES     
   12190 HW2         33.7960    40.8040   -60.8360 HW2           1 RES     
   12191 OW          12.7560    12.6620   -73.1210 OW            1 RES     
   12192 HW1         12.3580    12.0390   -73.7940 HW1           1 RES     
   12193 HW2         13.4490    12.1780   -72.5870 HW2           1 RES     
   12194 OW          41.5730    11.2420   -63.4810 OW            1 RES     
   12195 HW1         42.5300    10.9610   -63.5470 HW1           1 RES     
   12196 HW2         41.5120    12.2380   -63.5580 HW2           1 RES     
   12197 OW          16.7560    -3.9070   -68.3530 OW            1 RES     
   12198 HW1         17.6410    -4.3160   -68.5760 HW1           1 RES     
   12199 HW2         16.4030    -4.3150   -67.5110 HW2           1 RES     
   12200 OW          20.1220     0.8630   -67.8170 OW            1 RES     
   12201 HW1         19.1370     0.7760   -67.6770 HW1           1 RES     
   12202 HW2         20.5160    -0.0390   -67.9930 HW2           1 RES     
   12203 OW          -1.3010     0.6750   -60.9330 OW            1 RES     
   12204 HW1         -1.9350     1.0500   -60.2580 HW1           1 RES     
   12205 HW2         -1.6580     0.8380   -61.8530 HW2           1 RES     
   12206 OW          42.0810    19.0670   -61.7000 OW            1 RES     
   12207 HW1         43.0400    19.3430   -61.7670 HW1           1 RES     
   12208 HW2         41.9960    18.0990   -61.9380 HW2           1 RES     
   12209 OW          -1.0720    31.8950   -66.9730 OW            1 RES     
   12210 HW1         -0.3030    31.4630   -67.4440 HW1           1 RES     
   12211 HW2         -1.9140    31.7260   -67.4850 HW2           1 RES     
   12212 OW          -4.8670    16.3670   -73.8040 OW            1 RES     
   12213 HW1         -5.3280    17.2460   -73.9190 HW1           1 RES     
   12214 HW2         -5.5490    15.6460   -73.6840 HW2           1 RES     
   12215 OW          29.0830    32.8430   -73.7790 OW            1 RES     
   12216 HW1         30.0280    32.6450   -74.0390 HW1           1 RES     
   12217 HW2         28.9280    32.5520   -72.8350 HW2           1 RES     
   12218 OW          20.4260    35.3210   -73.9180 OW            1 RES     
   12219 HW1         19.4660    35.0690   -74.0390 HW1           1 RES     
   12220 HW2         20.4980    36.0420   -73.2270 HW2           1 RES     
   12221 OW          -0.2480    36.2230   -70.1450 OW            1 RES     
   12222 HW1         -0.2570    35.3250   -70.5820 HW1           1 RES     
   12223 HW2         -1.1880    36.5380   -70.0090 HW2           1 RES     
   12224 OW          -1.3820    -4.2970   -65.9640 OW            1 RES     
   12225 HW1         -1.2810    -4.3160   -64.9700 HW1           1 RES     
   12226 HW2         -0.4790    -4.3160   -66.3920 HW2           1 RES     
   12227 OW          11.6320    -0.8290   -65.8990 OW            1 RES     
   12228 HW1         11.5540     0.0980   -66.2620 HW1           1 RES     
   12229 HW2         12.2950    -1.3460   -66.4410 HW2           1 RES     
   12230 OW          40.3610    -0.8350   -63.3420 OW            1 RES     
   12231 HW1         40.7810    -1.7220   -63.1540 HW1           1 RES     
   12232 HW2         39.4380    -0.8140   -62.9550 HW2           1 RES     
   12233 OW          -4.9550    27.8960   -59.8520 OW            1 RES     
   12234 HW1         -4.2060    28.1510   -59.2420 HW1           1 RES     
   12235 HW2         -5.1540    28.6540   -60.4730 HW2           1 RES     
   12236 OW          28.8530    33.5280   -68.1780 OW            1 RES     
   12237 HW1         29.7830    33.1640   -68.1610 HW1           1 RES     
   12238 HW2         28.6590    33.9070   -69.0830 HW2           1 RES     
   12239 OW           2.5610     5.3160   -67.8030 OW            1 RES     
   12240 HW1          3.2970     4.6450   -67.8960 HW1           1 RES     
   12241 HW2          1.8730     5.1570   -68.5120 HW2           1 RES     
   12242 OW          24.9410     6.0360   -67.9320 OW            1 RES     
   12243 HW1         25.5550     6.4390   -67.2540 HW1           1 RES     
   12244 HW2         24.2260     6.6950   -68.1670 HW2           1 RES     
   12245 OW          25.8430     2.4620   -59.4930 OW            1 RES     
   12246 HW1         25.3810     2.3300   -58.6160 HW1           1 RES     
   12247 HW2         25.6460     1.6880   -60.0940 HW2           1 RES     
   12248 OW          18.5050    36.7420   -64.5990 OW            1 RES     
   12249 HW1         18.2780    37.6120   -64.1650 HW1           1 RES     
   12250 HW2         19.4590    36.5110   -64.4070 HW2           1 RES     
   12251 OW          15.8150    15.6860   -66.4980 OW            1 RES     
   12252 HW1         16.7660    15.5620   -66.7790 HW1           1 RES     
   12253 HW2         15.7860    16.1300   -65.6030 HW2           1 RES     
   12254 OW          39.6050     2.6550   -60.8560 OW            1 RES     
   12255 HW1         40.3470     1.9960   -60.9760 HW1           1 RES     
   12256 HW2         38.7940     2.1860   -60.5070 HW2           1 RES     
   12257 OW           5.9570    34.0530   -59.5990 OW            1 RES     
   12258 HW1          5.3910    33.4550   -59.0320 HW1           1 RES     
   12259 HW2          6.7320    33.5350   -59.9600 HW2           1 RES     
   12260 OW           1.6740    22.8190   -68.5990 OW            1 RES     
   12261 HW1          1.2910    21.8960   -68.5960 HW1           1 RES     
   12262 HW2          2.6730    22.7660   -68.5990 HW2           1 RES     
   12263 OW          -0.3100    18.5350   -65.4970 OW            1 RES     
   12264 HW1          0.1860    17.7200   -65.1970 HW1           1 RES     
   12265 HW2          0.3130    19.1410   -65.9920 HW2           1 RES     
   12266 OW          44.7620    25.0100   -71.7010 OW            1 RES     
   12267 HW1         43.8470    24.7910   -72.0380 HW1           1 RES     
   12268 HW2         45.1080    25.8190   -72.1760 HW2           1 RES     
   12269 OW           9.6880    -1.0610   -71.5880 OW            1 RES     
   12270 HW1         10.5620    -1.0330   -72.0720 HW1           1 RES     
   12271 HW2          9.5270    -1.9850   -71.2420 HW2           1 RES     
   12272 OW          20.2310    16.8430   -63.3340 OW            1 RES     
   12273 HW1         19.8900    17.7350   -63.0400 HW1           1 RES     
   12274 HW2         20.9470    16.5360   -62.7070 HW2           1 RES     
   12275 OW           6.3040    -3.7290   -63.9650 OW            1 RES     
   12276 HW1          6.4520    -2.9570   -63.3470 HW1           1 RES     
   12277 HW2          5.3250    -3.9200   -64.0310 HW2           1 RES     
   12278 OW          33.9920    35.0140   -66.4470 OW            1 RES     
   12279 HW1         33.1430    35.4550   -66.1580 HW1           1 RES     
   12280 HW2         34.5120    35.6400   -67.0290 HW2           1 RES     
   12281 OW          39.3330     1.8710   -68.3320 OW            1 RES     
   12282 HW1         39.0470     0.9700   -68.0100 HW1           1 RES     
   12283 HW2         40.0990     2.1970   -67.7770 HW2           1 RES     
   12284 OW          18.8160    -2.7910   -58.6910 OW            1 RES     
   12285 HW1         18.4860    -1.9880   -59.1860 HW1           1 RES     
   12286 HW2         19.8030    -2.7150   -58.5510 HW2           1 RES     
   12287 OW          17.4290    34.2650   -67.4910 OW            1 RES     
   12288 HW1         16.9100    34.1360   -66.6470 HW1           1 RES     
   12289 HW2         17.8440    33.3970   -67.7640 HW2           1 RES     
   12290 OW          40.1290    42.3630   -59.4160 OW            1 RES     
   12291 HW1         39.5740    43.0550   -58.9560 HW1           1 RES     
   12292 HW2         41.0700    42.6910   -59.4980 HW2           1 RES     
   12293 OW          23.3100    13.4400   -60.6710 OW            1 RES     
   12294 HW1         23.7280    14.3320   -60.5030 HW1           1 RES     
   12295 HW2         23.2330    13.2880   -61.6570 HW2           1 RES     
   12296 OW          28.2760     3.3910   -65.8040 OW            1 RES     
   12297 HW1         29.0760     3.7870   -66.2520 HW1           1 RES     
   12298 HW2         28.5680     2.8600   -65.0070 HW2           1 RES     
   12299 OW          38.2630    28.3260   -65.8310 OW            1 RES     
   12300 HW1         39.1540    28.0410   -66.1830 HW1           1 RES     
   12301 HW2         38.2200    28.1480   -64.8480 HW2           1 RES     
   12302 OW           9.9940     0.0490   -69.7130 OW            1 RES     
   12303 HW1         10.8780     0.4350   -69.9730 HW1           1 RES     
   12304 HW2          9.3080     0.7760   -69.6820 HW2           1 RES     
   12305 OW           5.3340    36.4990   -64.0460 OW            1 RES     
   12306 HW1          4.8710    35.7750   -64.5570 HW1           1 RES     
   12307 HW2          4.9580    36.5470   -63.1200 HW2           1 RES     
   12308 OW           7.0950    42.2530   -68.3160 OW            1 RES     
   12309 HW1          7.7190    41.7280   -68.8940 HW1           1 RES     
   12310 HW2          7.2430    43.2300   -68.4660 HW2           1 RES     
   12311 OW          -1.2580    10.7080   -69.7270 OW            1 RES     
   12312 HW1         -1.5150    11.3710   -70.4290 HW1           1 RES     
   12313 HW2         -0.9890     9.8480   -70.1630 HW2           1 RES     
   12314 OW           8.9590    22.8200   -66.6760 OW            1 RES     
   12315 HW1          7.9820    22.9310   -66.8520 HW1           1 RES     
   12316 HW2          9.3340    23.6740   -66.3160 HW2           1 RES     
   12317 OW          10.4530     1.2580   -67.8210 OW            1 RES     
   12318 HW1         11.4190     1.3670   -68.0550 HW1           1 RES     
   12319 HW2         10.0200     2.1580   -67.7670 HW2           1 RES     
   12320 OW          29.0770    11.1340   -60.8190 OW            1 RES     
   12321 HW1         29.9060    10.6230   -61.0410 HW1           1 RES     
   12322 HW2         29.2020    12.0960   -61.0620 HW2           1 RES     
   12323 OW          40.9380    35.5720   -68.7830 OW            1 RES     
   12324 HW1         41.6080    35.1080   -69.3620 HW1           1 RES     
   12325 HW2         40.5240    36.3270   -69.2910 HW2           1 RES     
   12326 OW          33.2870    26.9590   -64.3100 OW            1 RES     
   12327 HW1         32.7900    26.1000   -64.4300 HW1           1 RES     
   12328 HW2         34.1580    26.9120   -64.7990 HW2           1 RES     
   12329 OW          17.6690    38.2680   -73.9290 OW            1 RES     
   12330 HW1         18.3540    37.5420   -73.9800 HW1           1 RES     
   12331 HW2         18.1150    39.1560   -74.0390 HW2           1 RES     
   12332 OW          38.9450    -0.4310   -66.3160 OW            1 RES     
   12333 HW1         38.3130    -0.9300   -66.9080 HW1           1 RES     
   12334 HW2         39.0640    -0.9310   -65.4580 HW2           1 RES     
   12335 OW          -3.0050     2.0430   -68.6790 OW            1 RES     
   12336 HW1         -3.8740     2.5310   -68.6170 HW1           1 RES     
   12337 HW2         -3.0130     1.2640   -68.0510 HW2           1 RES     
   12338 OW           8.8980    42.3090   -71.4740 OW            1 RES     
   12339 HW1          8.6410    42.9520   -70.7540 HW1           1 RES     
   12340 HW2          8.7310    41.3740   -71.1620 HW2           1 RES     
   12341 OW          43.4550    33.4980   -72.0090 OW            1 RES     
   12342 HW1         43.1380    33.9350   -72.8500 HW1           1 RES     
   12343 HW2         42.7420    33.5610   -71.3100 HW2           1 RES     
   12344 OW          14.5190    -0.2840   -67.5510 OW            1 RES     
   12345 HW1         13.6610     0.2260   -67.6030 HW1           1 RES     
   12346 HW2         14.8180    -0.5310   -68.4730 HW2           1 RES     
   12347 OW           2.7820     7.9990   -64.8150 OW            1 RES     
   12348 HW1          3.0590     8.8940   -65.1620 HW1           1 RES     
   12349 HW2          1.9890     8.1030   -64.2160 HW2           1 RES     
   12350 OW          11.4830    13.2180   -58.6870 OW            1 RES     
   12351 HW1         10.5480    13.0760   -59.0120 HW1           1 RES     
   12352 HW2         11.8730    14.0240   -59.1320 HW2           1 RES     
@<TRIPOS>BOND
       1     3041     3042 1
       2     2955     2956 1
       3     3164     3165 1
       4     3609     3610 1
       5     2372     2374 1
       6     9977     9978 1
       7     3198     3197 1
       8     4481     4480 1
       9     9584     9585 1
      10     5456     5458 1
      11    11666    11668 1
      12     5618     5620 1
      13      644      645 1
      14     6455     6457 1
      15    11423    11425 1
      16     5213     5215 1
      17     9668     9670 1
      18      814      815 1
      19     5375     5377 1
      20     2405     2406 1
      21     4442     4427 1
      22      732      733 1
      23    11648    11650 1
      24    11405    11407 1
      25     6437     6439 1
      26     8606     8607 1
      27     8498     8499 1
      28    11576    11577 1
      29     5258     5259 1
      30     9335     9336 1
      31     9650     9652 1
      32      120      121 1
      33     5420     5421 1
      34    12035    12036 1
      35     7148     7149 1
      36      436      437 1
      37     5174     5176 1
      38     6173     6175 1
      39     6254     6256 1
      40    11222    11224 1
      41    11384    11386 1
      42     6416     6418 1
      43    11303    11305 1
      44     5093     5095 1
      45     5012     5014 1
      46      263      262 1
      47    10424    10425 1
      48     6887     6888 1
      49    11936    11937 1
      50    10019    10020 1
      51     9128     9129 1
      52     8966     8967 1
      53    10586    10587 1
      54     9371     9372 1
      55     7616     7617 1
      56     4587     4588 1
      57     2842     2843 1
      58     4627     4626 1
      59     4456     4457 1
      60      945      946 1
      61     2932     2934 1
      62     4307     4293 1
      63     3868     3869 1
      64     4290     4275 1
      65    10202    10204 1
      66     9605     9607 1
      67    10709    10710 1
      68     7577     7578 1
      69    10547    10548 1
      70     6740     6741 1
      71     8657     8658 1
      72     5984     5985 1
      73     9710     9711 1
      74    11627    11628 1
      75     3152     3157 1
      76     2441     2442 1
      77     5171     5173 1
      78    11381    11383 1
      79     7493     7495 1
      80    11219    11221 1
      81    10463    10465 1
      82     9086     9088 1
      83     6170     6172 1
      84     7169     7171 1
      85     5009     5011 1
      86    10301    10303 1
      87     4985     4987 1
      88     1524     1519 1
      89     2884     2887 1
      90     1465     1466 1
      91     6536     6538 1
      92     4557     4558 1
      93     9200     9202 1
      94     8471     8473 1
      95     4323     4324 1
      96     6884     6885 1
      97     7202     7204 1
      98     8720     8721 1
      99    10016    10017 1
     100     7640     7641 1
     101     9281     9283 1
     102    12251    12253 1
     103     7478     7479 1
     104      467      468 1
     105     9125     9126 1
     106     1100     1101 1
     107      667      668 1
     108     3628     3629 1
     109     3407     3408 1
     110     9104     9105 1
     111     1930     1931 1
     112     2077     2078 1
     113     3630     3631 1
     114     2645     2646 1
     115     6473     6475 1
     116     5150     5152 1
     117     7607     7609 1
     118     4582     4583 1
     119      616      617 1
     120     3897     3896 1
     121     5450     5451 1
     122     6719     6720 1
     123    11660    11661 1
     124     9662     9663 1
     125     5801     5802 1
     126     6449     6450 1
     127     3783     3784 1
     128     5720     5721 1
     129     9851     9852 1
     130     8798     8799 1
     131     5429     5431 1
     132      796      797 1
     133     1192     1189 1
     134     7583     7585 1
     135     2636     2637 1
     136    12323    12324 1
     137     7193     7194 1
     138    12242    12243 1
     139     7436     7437 1
     140     7274     7275 1
     141     9191     9192 1
     142     9272     9273 1
     143     5435     5436 1
     144     4673     4674 1
     145     4177     4178 1
     146     9779     9781 1
     147    11615    11617 1
     148     8645     8647 1
     149     8564     8566 1
     150    11534    11536 1
     151     3880     3881 1
     152      602      603 1
     153     2722     2725 1
     154      304      283 1
     155     2483     2484 1
     156     1384     1385 1
     157     3558     3537 1
     158      373      372 1
     159     1195     1200 1
     160     3824     3825 1
     161     8939     8941 1
     162     1922     1923 1
     163    11234    11235 1
     164     5024     5025 1
     165     4955     4957 1
     166     3279     3280 1
     167     1317     1318 1
     168     8174     8175 1
     169     4688     4689 1
     170       34       13 1
     171    12053    12055 1
     172     5681     5683 1
     173     5843     5845 1
     174     9461     9463 1
     175    10676    10678 1
     176     7544     7546 1
     177    11891    11893 1
     178     7004     7006 1
     179     7328     7330 1
     180     4087     4088 1
     181    11552    11553 1
     182     1534     1535 1
     183     2380     2381 1
     184     4091     4092 1
     185     1447     1448 1
     186     1668     1669 1
     187     7154     7155 1
     188     6743     6745 1
     189     3671     3672 1
     190     3363     3366 1
     191     1520     1523 1
     192     8066     8067 1
     193      144      146 1
     194    10991    10993 1
     195     7949     7950 1
     196     1260     1261 1
     197     2667     2668 1
     198     4853     4855 1
     199      961      960 1
     200     4414     4415 1
     201     4267     4268 1
     202     1132     1133 1
     203     2065     2066 1
     204     1542     1543 1
     205      676      677 1
     206     4230     4231 1
     207     4527     4528 1
     208     1710     1711 1
     209     2748     2727 1
     210      692      691 1
     211     1301     1302 1
     212     2618     2619 1
     213     2919     2920 1
     214    11705    11706 1
     215     4422     4423 1
     216     2164     2165 1
     217     4643     4644 1
     218     1952     1938 1
     219      669      670 1
     220     2989     2988 1
     221      166      164 1
     222    11504    11506 1
     223     9776     9778 1
     224     5153     5155 1
     225     6908     6910 1
     226     7745     7747 1
     227     6314     6316 1
     228    11201    11203 1
     229    11039    11041 1
     230     9149     9151 1
     231    11765    11767 1
     232     7232     7234 1
     233     5585     5587 1
     234     1557     1558 1
     235    10031    10032 1
     236     3045     3050 1
     237     1226     1227 1
     238     4454     4455 1
     239     4604     4605 1
     240     1568     1570 1
     241     3026     3027 1
     242     2394     2395 1
     243      435      436 1
     244     9971     9973 1
     245     9029     9030 1
     246    10433    10434 1
     247    12161    12162 1
     248     1799     1800 1
     249      161      162 1
     250     9380     9381 1
     251    11999    12000 1
     252     8867     8868 1
     253     4772     4773 1
     254    12188    12189 1
     255     1574     1576 1
     256     7811     7813 1
     257     7568     7570 1
     258    10700    10702 1
     259     5975     5977 1
     260    10538    10540 1
     261      159      160 1
     262     7649     7651 1
     263       79       80 1
     264     3139     3140 1
     265     3365     3366 1
     266     2344     2346 1
     267     3252     3253 1
     268     2807     2808 1
     269     6419     6421 1
     270     9497     9499 1
     271    11759    11760 1
     272     2142     2128 1
     273     4877     4878 1
     274    12182    12183 1
     275    10346    10347 1
     276     1782     1783 1
     277     1849     1850 1
     278    10280    10281 1
     279     8714     8715 1
     280     7697     7698 1
     281    11450    11452 1
     282     9398     9400 1
     283    10451    10453 1
     284     7925     7926 1
     285     5927     5928 1
     286      862      863 1
     287    12206    12208 1
     288     4763     4764 1
     289     8480     8482 1
     290     6401     6403 1
     291    10895    10896 1
     292     6089     6090 1
     293     4568     4569 1
     294     2180     2166 1
     295     7814     7816 1
     296     8732     8734 1
     297     5654     5656 1
     298     9767     9768 1
     299     8876     8877 1
     300    11684    11685 1
     301     8633     8634 1
     302    11603    11604 1
     303     5474     5475 1
     304    11360    11361 1
     305    12089    12090 1
     306     5879     5880 1
     307     9038     9039 1
     308     4832     4834 1
     309      431      432 1
     310     4784     4786 1
     311     4575     4560 1
     312     8090     8092 1
     313    11060    11062 1
     314     8171     8173 1
     315     7847     7849 1
     316     8252     8254 1
     317     2794     2795 1
     318    11141    11143 1
     319     8009     8011 1
     320     6011     6013 1
     321    10979    10981 1
     322     7940     7941 1
     323    10910    10911 1
     324     5942     5943 1
     325     6104     6105 1
     326     4116     4117 1
     327     4263     4264 1
     328     4410     4411 1
     329     3555     3556 1
     330     3988     3989 1
     331     3340     3341 1
     332     8777     8778 1
     333     4281     4282 1
     334     3036     3037 1
     335     3684     3685 1
     336     8825     8827 1
     337     3259     3260 1
     338      683      684 1
     339     4691     4693 1
     340     3478     3481 1
     341     1149     1151 1
     342     7010     7011 1
     343    12059    12060 1
     344     5849     5850 1
     345     2457     2458 1
     346     7334     7335 1
     347     9467     9468 1
     348    11897    11898 1
     349     5687     5688 1
     350     7559     7560 1
     351     7550     7551 1
     352     3603     3602 1
     353     5414     5415 1
     354     1770     1771 1
     355     5528     5530 1
     356     8336     8338 1
     357     4548     4549 1
     358     7256     7258 1
     359     9335     9337 1
     360     5420     5422 1
     361    12035    12037 1
     362     7148     7150 1
     363     9821     9823 1
     364     8498     8500 1
     365    10253    10255 1
     366      818      820 1
     367     3806     3807 1
     368     2173     2174 1
     369     2911     2912 1
     370     2320     2321 1
     371     2194     2195 1
     372     3222     3223 1
     373     5633     5634 1
     374     1859     1844 1
     375      242      243 1
     376     1529     1530 1
     377     3411     3412 1
     378     3844     3845 1
     379     4053     4054 1
     380     4871     4872 1
     381      950      951 1
     382     1592     1593 1
     383     3950     3951 1
     384      517      518 1
     385     3128     3130 1
     386      938      939 1
     387      941      942 1
     388     2881     2882 1
     389      505      506 1
     390     5777     5778 1
     391     1485     1486 1
     392     1170     1172 1
     393     1228     1229 1
     394     9079     9077 1
     395      807      808 1
     396     6703     6701 1
     397    10391    10392 1
     398     7421     7422 1
     399     8501     8502 1
     400     5423     5424 1
     401     6584     6585 1
     402     5261     5262 1
     403     9500     9501 1
     404    11471    11472 1
     405     8339     8340 1
     406      342      343 1
     407      784      785 1
     408      787      788 1
     409     1647     1648 1
     410     1650     1651 1
     411     2629     2630 1
     412      993      994 1
     413     1826     1827 1
     414     9881     9882 1
     415      332      334 1
     416      187      188 1
     417      614      615 1
     418    12287    12288 1
     419     4844     4845 1
     420    10016    10018 1
     421     7640     7642 1
     422     8720     8722 1
     423     7478     7480 1
     424     9125     9127 1
     425     4724     4725 1
     426    11933    11935 1
     427      663      664 1
     428     6884     6886 1
     429     8963     8965 1
     430     7256     7257 1
     431     4633     4634 1
     432     2404     2405 1
     433     9104     9106 1
     434      336      337 1
     435    10523    10525 1
     436    10334    10335 1
     437     1905     1906 1
     438     4016     4021 1
     439     5444     5445 1
     440     1403     1404 1
     441      190      189 1
     442     2746     2747 1
     443      350      351 1
     444     2305     2306 1
     445     2312     2313 1
     446     2392     2394 1
     447      757      760 1
     448     5495     5496 1
     449    11327    11328 1
     450    11867    11868 1
     451    11489    11490 1
     452     5819     5820 1
     453     6818     6819 1
     454     8357     8358 1
     455     8195     8196 1
     456     9950     9951 1
     457     5279     5280 1
     458      290      291 1
     459     2443     2444 1
     460     4775     4777 1
     461      362      360 1
     462     2377     2378 1
     463     5066     5068 1
     464    12194    12196 1
     465     1547     1548 1
     466     4766     4767 1
     467     7647     7646 1
     468     7451     7452 1
     469      418      419 1
     470     1284     1285 1
     471      209      210 1
     472     1571     1572 1
     473     3990     3969 1
     474     1941     1942 1
     475      156      157 1
     476     4676     4678 1
     477     6605     6607 1
     478     2239     2240 1
     479     7034     7035 1
     480     8921     8923 1
     481     3111     3112 1
     482     2720     2725 1
     483      621      622 1
     484     2029     2030 1
     485     2079     2080 1
     486      437      438 1
     487    10307    10309 1
     488     1932     1933 1
     489      923      922 1
     490     4645     4646 1
     491     4682     4684 1
     492     1142     1144 1
     493     3384     3385 1
     494     7721     7722 1
     495     9368     9369 1
     496     7883     7884 1
     497     3095     3096 1
     498     9449     9450 1
     499    10772    10773 1
     500    10502    10503 1
     501    11015    11016 1
     502     9557     9558 1
     503     3316     3318 1
     504      167      168 1
     505     3189     3190 1
     506     7268     7269 1
     507    12317    12318 1
     508     1573     1574 1
     509     6515     6516 1
     510     5192     5193 1
     511    11402    11403 1
     512     7055     7056 1
     513     5354     5355 1
     514     8972     8973 1
     515     9647     9648 1
     516    10025    10026 1
     517      444      445 1
     518    11942    11943 1
     519     7805     7806 1
     520     4268     4269 1
     521     4415     4416 1
     522     2367     2368 1
     523     3408     3409 1
     524     3196     3197 1
     525     6374     6376 1
     526     5099     5101 1
     527     6422     6424 1
     528     4243     4244 1
     529     6179     6181 1
     530     4474     4475 1
     531    11390    11392 1
     532     5180     5182 1
     533     2382     2383 1
     534    11228    11230 1
     535     4477     4478 1
     536     1079     1080 1
     537      407      408 1
     538     2206     2205 1
     539     9263     9265 1
     540     4499     4500 1
     541     4994     4995 1
     542     1120     1119 1
     543      574      553 1
     544    10955    10956 1
     545    11378    11379 1
     546     5168     5169 1
     547     3883     3884 1
     548     1796     1797 1
     549     6410     6411 1
     550    11216    11217 1
     551     6248     6249 1
     552     5087     5088 1
     553     5006     5007 1
     554    11297    11298 1
     555     2093     2094 1
     556     6905     6907 1
     557     2824     2826 1
     558     3360     3361 1
     559     2927     2928 1
     560     1272     1273 1
     561     2304     2305 1
     562     5015     5017 1
     563      758      760 1
     564     3072     3073 1
     565     4033     4034 1
     566     4225     4224 1
     567     5204     5205 1
     568    11243    11245 1
     569     5372     5374 1
     570      940      941 1
     571     4652     4653 1
     572      725      726 1
     573     6140     6141 1
     574     4337     4338 1
     575     3046     3047 1
     576      302      303 1
     577     2861     2862 1
     578     2652     2653 1
     579     7706     7708 1
     580    10838    10840 1
     581     7868     7870 1
     582    11000    11002 1
     583      473      474 1
     584     1897     1882 1
     585      646      647 1
     586     6899     6901 1
     587     6983     6985 1
     588     9386     9388 1
     589    11114    11116 1
     590     7145     7147 1
     591    12032    12034 1
     592     7485     7484 1
     593     8468     8470 1
     594     3878     3879 1
     595    11438    11440 1
     596     3012     3013 1
     597     7073     7074 1
     598    12197    12198 1
     599    10958    10959 1
     600     2474     2475 1
     601     3337     3338 1
     602      206      207 1
     603    11174    11176 1
     604     2683     2684 1
     605      817      822 1
     606     4659     4660 1
     607     6287     6289 1
     608     1066     1067 1
     609     1381     1382 1
     610     6176     6177 1
     611     4877     4879 1
     612    12182    12184 1
     613    10346    10348 1
     614     3370     3371 1
     615     4493     4492 1
     616     5930     5931 1
     617     7928     7929 1
     618     9359     9360 1
     619     9440     9441 1
     620    10493    10494 1
     621    10412    10413 1
     622     7604     7605 1
     623    10898    10899 1
     624     6092     6093 1
     625     7361     7362 1
     626     3522     3523 1
     627    12071    12073 1
     628     7925     7927 1
     629     5927     5929 1
     630     6089     6091 1
     631     4763     4765 1
     632    10895    10897 1
     633     4232     4233 1
     634      501      502 1
     635     4561     4562 1
     636      919      922 1
     637    11348    11350 1
     638    11360    11362 1
     639     6554     6556 1
     640    12089    12091 1
     641     4119     4120 1
     642     5474     5476 1
     643     8390     8392 1
     644     9038     9040 1
     645    11603    11605 1
     646     2030     2015 1
     647     5555     5557 1
     648     5615     5616 1
     649     4913     4914 1
     650     3100     3102 1
     651     5351     5352 1
     652     9428     9429 1
     653    10400    10401 1
     654     6512     6513 1
     655     5432     5433 1
     656     3396     3375 1
     657     3231     3232 1
     658     1558     1559 1
     659     4760     4761 1
     660     5645     5646 1
     661     4862     4863 1
     662     1601     1602 1
     663     2846     2845 1
     664      219      220 1
     665      893      894 1
     666     4383     4369 1
     667     2880     2877 1
     668     1478     1479 1
     669     4522     4523 1
     670     1488     1489 1
     671     4123     4124 1
     672     4207     4208 1
     673     1135     1138 1
     674     4438     4439 1
     675     1025     1026 1
     676     1667     1668 1
     677     7648     7646 1
     678     1452     1453 1
     679     1234     1235 1
     680     1019     1020 1
     681     1401     1400 1
     682    10715    10716 1
     683     7583     7584 1
     684     5882     5883 1
     685    12092    12093 1
     686    10175    10176 1
     687     1444     1445 1
     688    10553    10554 1
     689     5990     5991 1
     690     7043     7044 1
     691    10337    10338 1
     692     3901     3902 1
     693     7043     7045 1
     694     3717     3718 1
     695     3063     3064 1
     696     7112     7113 1
     697    12350    12351 1
     698     9056     9057 1
     699     4820     4821 1
     700    10109    10110 1
     701     3705     3706 1
     702    10271    10272 1
     703     9920     9921 1
     704     9218     9219 1
     705     8336     8337 1
     706     2003     2004 1
     707     1611     1612 1
     708     4430     4431 1
     709     4280     4281 1
     710     4514     4515 1
     711      277      282 1
     712     3332     3333 1
     713     9308     9310 1
     714     7289     7291 1
     715     7694     7696 1
     716     2277     2278 1
     717      764      766 1
     718     1977     1978 1
     719     1755     1756 1
     720     8561     8562 1
     721     8831     8833 1
     722     7385     7387 1
     723     3766     3767 1
     724     4556     4557 1
     725     3748     3749 1
     726     6641     6643 1
     727     4188     4187 1
     728     3619     3620 1
     729      440      443 1
     730     6134     6135 1
     731     6404     6405 1
     732     9320     9321 1
     733    10454    10455 1
     734    11102    11103 1
     735     8051     8052 1
     736    12209    12210 1
     737    11777    11779 1
     738     5054     5055 1
     739      562      563 1
     740    12266    12268 1
     741     2000     2001 1
     742     1853     1854 1
     743     1508     1509 1
     744     1812     1813 1
     745     1959     1960 1
     746      447      448 1
     747     4412     4413 1
     748     7613     7614 1
     749    10982    10983 1
     750     6329     6331 1
     751     8408     8410 1
     752     6491     6493 1
     753       80       81 1
     754     3573     3574 1
     755     9407     9409 1
     756     2922     2923 1
     757     9245     9247 1
     758     3997     3998 1
     759     6653     6655 1
     760     4544     4545 1
     761     4113     4114 1
     762      548      549 1
     763     2851     2852 1
     764     1872     1873 1
     765     1783     1784 1
     766    10247    10248 1
     767    10874    10875 1
     768     1233     1234 1
     769     3874     3875 1
     770     3877     3878 1
     771     8312     8314 1
     772     7007     7008 1
     773    11855    11857 1
     774     6968     6970 1
     775     9845     9847 1
     776     2286     2287 1
     777     5480     5481 1
     778     2525     2524 1
     779     8357     8359 1
     780    11489    11491 1
     781     5819     5821 1
     782     5495     5497 1
     783    11327    11329 1
     784     6818     6820 1
     785     8195     8197 1
     786      624      625 1
     787     9950     9952 1
     788     5279     5281 1
     789     1391     1392 1
     790      908      909 1
     791    10718    10719 1
     792    10556    10557 1
     793     7829     7830 1
     794     7586     7587 1
     795     5993     5994 1
     796     7667     7668 1
     797     1756     1757 1
     798      602      605 1
     799     3528     3526 1
     800      609      610 1
     801     4766     4768 1
     802     7622     7623 1
     803     7460     7461 1
     804     9458     9459 1
     805    10673    10674 1
     806     7541     7542 1
     807      705      706 1
     808       66       61 1
     809     4265     4266 1
     810      526      527 1
     811      317      318 1
     812     4751     4752 1
     813     3754     3755 1
     814     3160     3161 1
     815     2654     2655 1
     816     2872     2873 1
     817     1654     1655 1
     818    12116    12118 1
     819     5893     5891 1
     820      244      245 1
     821     1084     1085 1
     822     7913     7915 1
     823     8993     8995 1
     824     5363     5365 1
     825     6524     6526 1
     826    11411    11413 1
     827     1205     1206 1
     828      569      570 1
     829     2420     2421 1
     830     1432     1433 1
     831      996      997 1
     832     2332     2318 1
     833     1628     1630 1
     834      147      148 1
     835     2324     2325 1
     836     1311     1312 1
     837     7370     7372 1
     838     9449     9451 1
     839    10502    10504 1
     840     7883     7885 1
     841     7721     7723 1
     842     9368     9370 1
     843    10772    10774 1
     844    11015    11017 1
     845     9557     9559 1
     846    10853    10855 1
     847     2804     2805 1
     848     7268     7270 1
     849    12317    12319 1
     850     3002     3003 1
     851     2581     2582 1
     852     3581     3582 1
     853     8810     8812 1
     854     4958     4960 1
     855     6698     6700 1
     856    11585    11587 1
     857    11402    11404 1
     858     7055     7057 1
     859     5354     5356 1
     860     6515     6517 1
     861     5192     5194 1
     862     8972     8974 1
     863     9647     9649 1
     864    10025    10027 1
     865     3687     3690 1
     866    11942    11944 1
     867     6839     6841 1
     868     3145     3146 1
     869     3778     3779 1
     870    10685    10686 1
     871     1983     1984 1
     872     1836     1837 1
     873     4817     4818 1
     874        5        6 1
     875     2604     2605 1
     876      615      616 1
     877     3025     3026 1
     878     1084     1081 1
     879     4018     4020 1
     880     4038     4039 1
     881     4490     4491 1
     882     3826     3827 1
     883     2530     2531 1
     884     2951     2952 1
     885     3814     3815 1
     886     6107     6108 1
     887     9023     9024 1
     888     4193     4179 1
     889     1942     1943 1
     890    11993    11994 1
     891     8861     8862 1
     892      157      158 1
     893     7049     7050 1
     894     4946     4948 1
     895      655      656 1
     896     9065     9066 1
     897     5276     5278 1
     898     3560     3562 1
     899     1935     1920 1
     900    11852    11854 1
     901     6965     6967 1
     902    10028    10029 1
     903     1716     1717 1
     904     6440     6441 1
     905     5603     5604 1
     906    11651    11652 1
     907    12029    12030 1
     908     7142     7143 1
     909     8897     8898 1
     910     3830     3831 1
     911     9572     9573 1
     912     6980     6981 1
     913     2112     2113 1
     914     3694     3695 1
     915     3504     3483 1
     916     5384     5385 1
     917      404      405 1
     918      247      248 1
     919      235      236 1
     920     6767     6769 1
     921     6686     6688 1
     922     4001     4002 1
     923     8684     8686 1
     924     8603     8605 1
     925     8522     8524 1
     926     9818     9820 1
     927     5525     5527 1
     928     2791     2792 1
     929    11816    11818 1
     930    12104    12105 1
     931     7211     7212 1
     932    12260    12261 1
     933     9479     9480 1
     934     7562     7563 1
     935     9290     9291 1
     936    10694    10695 1
     937     5156     5157 1
     938      636      637 1
     939     6125     6127 1
     940      427      428 1
     941     7952     7953 1
     942     3072     3051 1
     943     6695     6697 1
     944     9251     9252 1
     945     6659     6660 1
     946     6335     6336 1
     947     6497     6498 1
     948     8414     8415 1
     949     9413     9414 1
     950     5336     5337 1
     951    10628    10629 1
     952     4289     4290 1
     953    10097    10098 1
     954     7454     7455 1
     955     7946     7947 1
     956     5030     5031 1
     957      900      901 1
     958      544      545 1
     959     3813     3814 1
     960     3531     3536 1
     961     2978     2977 1
     962      170      172 1
     963      458      459 1
     964     4052     4053 1
     965    10004    10006 1
     966    12155    12156 1
     967     3566     3565 1
     968     7511     7512 1
     969     8024     8025 1
     970     3927     3928 1
     971      719      720 1
     972     2445     2448 1
     973     3539     3540 1
     974     4256     4257 1
     975       30       31 1
     976     3847     3848 1
     977     2981     2982 1
     978     3617     3618 1
     979     4056     4057 1
     980     4562     4563 1
     981     4967     4968 1
     982     3910     3912 1
     983      935      936 1
     984     1165     1166 1
     985     4291     4292 1
     986     1294     1295 1
     987    10229    10231 1
     988     7772     7773 1
     989    12335    12336 1
     990     7448     7449 1
     991    12254    12255 1
     992     9203     9204 1
     993     7205     7206 1
     994    10823    10824 1
     995     7529     7530 1
     996     7691     7692 1
     997     4598     4599 1
     998    10898    10900 1
     999     2626     2627 1
    1000     3280     3281 1
    1001     2943     2944 1
    1002     1579     1580 1
    1003     2555     2556 1
    1004     2129     2130 1
    1005     4326     4312 1
    1006     5438     5440 1
    1007     3033     3034 1
    1008     4730     4732 1
    1009     1029     1030 1
    1010     6986     6987 1
    1011     2451     2452 1
    1012     3431     3432 1
    1013    10400    10402 1
    1014     5432     5434 1
    1015     5351     5353 1
    1016     6512     6514 1
    1017     9428     9430 1
    1018     1986     1985 1
    1019     4375     4376 1
    1020     3347     3346 1
    1021       78       77 1
    1022     9968     9970 1
    1023     3005     3004 1
    1024     4495     4496 1
    1025     9980     9981 1
    1026     2186     2187 1
    1027     3316     3319 1
    1028     3938     3939 1
    1029     2341     2342 1
    1030     2170     2171 1
    1031     2023     2024 1
    1032     3639     3644 1
    1033     4603     4602 1
    1034     1555     1556 1
    1035     8534     8535 1
    1036      704      706 1
    1037      816      821 1
    1038     4537     4522 1
    1039     2721     2722 1
    1040      245      246 1
    1041     5693     5694 1
    1042     4721     4723 1
    1043     4841     4843 1
    1044     2434     2435 1
    1045      101      102 1
    1046      373      374 1
    1047     4318     4319 1
    1048     4727     4729 1
    1049      201      202 1
    1050     1110     1111 1
    1051      456      457 1
    1052     1440     1441 1
    1053     3471     3474 1
    1054     4628     4629 1
    1055     4472     4473 1
    1056     3583     3584 1
    1057     1484     1485 1
    1058     4325     4326 1
    1059     4541     4542 1
    1060      472      471 1
    1061    10050    10049 1
    1062     6999     6998 1
    1063     2992     2995 1
    1064     5730     5729 1
    1065     3895     3896 1
    1066     8201     8202 1
    1067     9983     9984 1
    1068     4778     4779 1
    1069      860      861 1
    1070     1720     1721 1
    1071     2097     2098 1
    1072      923      924 1
    1073     3069     3070 1
    1074     8975     8977 1
    1075     4700     4702 1
    1076      498      493 1
    1077     8051     8053 1
    1078     9320     9322 1
    1079     6134     6136 1
    1080    10454    10456 1
    1081     3438     3439 1
    1082    11102    11104 1
    1083     4352     4353 1
    1084     4586     4587 1
    1085     6404     6406 1
    1086    12209    12211 1
    1087     1710     1712 1
    1088    11339    11341 1
    1089     1902     1903 1
    1090     4195     4180 1
    1091      760      761 1
    1092     5114     5115 1
    1093      194      195 1
    1094     1062     1063 1
    1095     7067     7069 1
    1096     3584     3589 1
    1097      752      753 1
    1098      905      906 1
    1099     1559     1560 1
    1100      481      482 1
    1101     4441     4442 1
    1102     1906     1907 1
    1103     2107     2108 1
    1104    12047    12048 1
    1105     7079     7080 1
    1106     5459     5460 1
    1107     7403     7404 1
    1108    11669    11670 1
    1109     8726     8727 1
    1110     8078     8079 1
    1111    11129    11130 1
    1112     1939     1940 1
    1113     1898     1899 1
    1114     3418     3420 1
    1115     1099     1100 1
    1116     2512     2513 1
    1117     9392     9394 1
    1118     8474     8476 1
    1119     3782     3783 1
    1120    10445    10447 1
    1121    11444    11446 1
    1122     3140     3141 1
    1123     5447     5449 1
    1124    12200    12202 1
    1125     6395     6397 1
    1126    11189    11191 1
    1127     2906     2905 1
    1128     1671     1672 1
    1129     5606     5608 1
    1130     8927     8929 1
    1131     2510     2511 1
    1132     9726     9725 1
    1133     3498     3499 1
    1134     9071     9072 1
    1135     3154     3155 1
    1136    12011    12013 1
    1137     3502     3503 1
    1138     8894     8895 1
    1139    12026    12027 1
    1140     5060     5061 1
    1141     2174     2175 1
    1142     2321     2322 1
    1143     7829     7831 1
    1144    10718    10720 1
    1145     7586     7588 1
    1146    10556    10558 1
    1147     7139     7140 1
    1148     5993     5995 1
    1149     7667     7669 1
    1150     5378     5379 1
    1151     4934     4936 1
    1152     3884     3885 1
    1153     7460     7462 1
    1154     7622     7624 1
    1155     9458     9460 1
    1156     7541     7543 1
    1157     4883     4884 1
    1158    10673    10675 1
    1159     3572     3573 1
    1160     3784     3785 1
    1161     2924     2925 1
    1162     1986     1987 1
    1163     2478     2457 1
    1164     2061     2062 1
    1165     2810     2811 1
    1166     3670     3671 1
    1167     3673     3674 1
    1168     7031     7032 1
    1169     2011     1996 1
    1170     3461     3462 1
    1171     3464     3465 1
    1172     3598     3599 1
    1173     3853     3854 1
    1174     1182     1183 1
    1175     2467     2468 1
    1176     1507     1508 1
    1177     8189     8190 1
    1178     9935     9937 1
    1179     4685     4686 1
    1180     3388     3389 1
    1181     3597     3598 1
    1182     5837     5838 1
    1183    11885    11886 1
    1184     2731     2732 1
    1185     7997     7998 1
    1186     6380     6382 1
    1187    10967    10968 1
    1188      155      156 1
    1189     1769     1770 1
    1190     9692     9694 1
    1191     1382     1383 1
    1192     4424     4425 1
    1193     9506     9508 1
    1194    11477    11479 1
    1195     4271     4272 1
    1196     7427     7429 1
    1197    10397    10399 1
    1198    11126    11128 1
    1199    12044    12046 1
    1200     5078     5080 1
    1201     8345     8347 1
    1202     7157     7159 1
    1203     2315     2300 1
    1204     1421     1422 1
    1205     1514     1516 1
    1206     7796     7797 1
    1207    11279    11280 1
    1208     7364     7365 1
    1209     6230     6231 1
    1210    10496    10497 1
    1211     8147     8148 1
    1212     6473     6474 1
    1213     7877     7878 1
    1214     9443     9444 1
    1215     9362     9363 1
    1216     2125     2110 1
    1217     6055     6053 1
    1218      386      388 1
    1219      210      211 1
    1220    11168    11170 1
    1221     8036     8038 1
    1222    11843    11845 1
    1223     6956     6958 1
    1224     2573     2574 1
    1225    11762    11764 1
    1226     5795     5797 1
    1227     5120     5122 1
    1228     6281     6283 1
    1229     5039     5041 1
    1230     4668     4654 1
    1231      358      337 1
    1232     3110     3111 1
    1233     3275     3276 1
    1234     4249     4248 1
    1235     7967     7969 1
    1236     6977     6979 1
    1237     1590     1591 1
    1238      300      301 1
    1239     6107     6109 1
    1240     9023     9025 1
    1241     8861     8863 1
    1242    11993    11995 1
    1243     3229     3230 1
    1244     4952     4954 1
    1245      142      121 1
    1246     3335     3336 1
    1247     8873     8874 1
    1248     9548     9549 1
    1249    12005    12006 1
    1250    10763    10764 1
    1251     7793     7794 1
    1252     9035     9036 1
    1253    10250    10251 1
    1254    11525    11526 1
    1255    10601    10602 1
    1256      599      600 1
    1257     5018     5020 1
    1258     1815     1814 1
    1259     7142     7144 1
    1260     6440     6442 1
    1261    11651    11653 1
    1262     5603     5605 1
    1263    12029    12031 1
    1264     8897     8899 1
    1265     6980     6982 1
    1266     9572     9574 1
    1267     5441     5443 1
    1268     4486     4487 1
    1269     2088     2089 1
    1270     6389     6390 1
    1271     3545     3546 1
    1272     2296     2297 1
    1273     9422     9423 1
    1274     7424     7425 1
    1275    11522    11524 1
    1276     6635     6637 1
    1277    10637    10638 1
    1278     2452     2454 1
    1279     9503     9504 1
    1280     9260     9261 1
    1281     2068     2069 1
    1282    10394    10395 1
    1283     1971     1957 1
    1284      461      462 1
    1285     9833     9834 1
    1286     7835     7836 1
    1287     1873     1874 1
    1288      331      336 1
    1289      457      458 1
    1290     6719     6721 1
    1291     4147     4148 1
    1292     1436     1437 1
    1293    10682    10684 1
    1294    10577    10579 1
    1295     4435     4436 1
    1296      365      366 1
    1297     1673     1674 1
    1298    11120    11121 1
    1299    12038    12039 1
    1300     7151     7152 1
    1301     6989     6990 1
    1302    10235    10237 1
    1303     2923     2924 1
    1304     8906     8907 1
    1305     5072     5073 1
    1306     7580     7582 1
    1307     3234     3213 1
    1308    12251    12252 1
    1309     1271     1272 1
    1310     1056     1057 1
    1311     1477     1478 1
    1312      405      406 1
    1313     5465     5466 1
    1314     9758     9759 1
    1315     8381     8382 1
    1316    11675    11676 1
    1317    11351    11352 1
    1318     6545     6546 1
    1319    11594    11595 1
    1320     5546     5547 1
    1321     8543     8544 1
    1322     4826     4828 1
    1323     2793     2794 1
    1324     7511     7513 1
    1325     8024     8026 1
    1326    12155    12157 1
    1327     2799     2800 1
    1328     8546     8547 1
    1329     1573     1578 1
    1330     3980     3981 1
    1331      921      922 1
    1332     2504     2509 1
    1333     3856     3859 1
    1334     2575     2574 1
    1335     1707     1706 1
    1336     4392     4393 1
    1337     3404     3405 1
    1338     3368     3367 1
    1339      989      990 1
    1340      300      299 1
    1341    10997    10998 1
    1342     3586     3589 1
    1343     1131     1130 1
    1344     2081     2082 1
    1345     2228     2229 1
    1346     4907     4909 1
    1347     7190     7192 1
    1348     7382     7384 1
    1349     8681     8682 1
    1350     8519     8520 1
    1351     6764     6765 1
    1352     6602     6603 1
    1353    11813    11814 1
    1354     4024     4025 1
    1355     1965     1966 1
    1356     1841     1842 1
    1357      231      232 1
    1358     6356     6358 1
    1359    11486    11488 1
    1360     8435     8437 1
    1361    11324    11326 1
    1362     8192     8194 1
    1363     8354     8356 1
    1364     2985     2988 1
    1365     4624     4625 1
    1366     8273     8275 1
    1367     4093     4094 1
    1368     2696     2698 1
    1369     3078     3077 1
    1370     1291     1292 1
    1371     4172     4173 1
    1372     2929     2930 1
    1373    11630    11632 1
    1374     3898     3899 1
    1375     3238     3239 1
    1376     3261     3266 1
    1377     9287     9288 1
    1378    10745    10746 1
    1379    12191    12192 1
    1380     4361     4362 1
    1381      130      131 1
    1382    10856    10858 1
    1383     8792     8794 1
    1384      113      112 1
    1385     5966     5967 1
    1386     3304     3305 1
    1387     2650     2651 1
    1388     1302     1307 1
    1389     3952     3953 1
    1390     1408     1409 1
    1391      975      976 1
    1392     4253     4254 1
    1393     2741     2742 1
    1394     5963     5965 1
    1395     2270     2271 1
    1396    10367    10368 1
    1397    11744    11745 1
    1398     6857     6858 1
    1399    12284    12285 1
    1400     9989     9990 1
    1401    10529    10530 1
    1402     9314     9315 1
    1403     7634     7636 1
    1404    10151    10152 1
    1405      547      552 1
    1406     1753     1754 1
    1407     2753     2754 1
    1408     2363     2364 1
    1409     7349     7350 1
    1410     2044     2045 1
    1411    11321    11322 1
    1412     8675     8676 1
    1413     8513     8514 1
    1414     6758     6759 1
    1415    11483    11484 1
    1416     1207     1206 1
    1417      976      977 1
    1418     5273     5274 1
    1419     6596     6597 1
    1420     8351     8352 1
    1421      228      229 1
    1422     1821     1806 1
    1423      338      339 1
    1424    11774    11775 1
    1425      949      950 1
    1426     3483     3484 1
    1427     3199     3200 1
    1428     2754     2755 1
    1429     3187     3188 1
    1430     2545     2546 1
    1431     2362     2363 1
    1432     1398     1399 1
    1433     1607     1608 1
    1434     3808     3809 1
    1435     7103     7104 1
    1436    11870    11871 1
    1437    11369    11371 1
    1438    11693    11695 1
    1439     1424     1425 1
    1440      697      698 1
    1441     1336     1337 1
    1442      380      382 1
    1443     3144     3145 1
    1444     3934     3935 1
    1445     1006      985 1
    1446     5924     5925 1
    1447     7922     7923 1
    1448    10892    10893 1
    1449     6086     6087 1
    1450       90       91 1
    1451     1364     1365 1
    1452    12047    12049 1
    1453     8483     8485 1
    1454    11453    11455 1
    1455    11129    11131 1
    1456     5459     5461 1
    1457     7079     7081 1
    1458     2106     2107 1
    1459     7403     7405 1
    1460    11669    11671 1
    1461     8726     8728 1
    1462      318      319 1
    1463     2915     2916 1
    1464     2497     2498 1
    1465     2706     2707 1
    1466     4594     4595 1
    1467    10964    10966 1
    1468     3685     3686 1
    1469     3240     3241 1
    1470     9599     9601 1
    1471     3208     3211 1
    1472     2936     2941 1
    1473     4034     4035 1
    1474     3551     3552 1
    1475     1656     1657 1
    1476     8753     8754 1
    1477     6971     6972 1
    1478     2251     2252 1
    1479     1803     1804 1
    1480     2938     2941 1
    1481     3007     3008 1
    1482    10667    10668 1
    1483    12098    12100 1
    1484     7589     7591 1
    1485    10721    10723 1
    1486    10181    10183 1
    1487     5888     5890 1
    1488    10559    10561 1
    1489     5996     5998 1
    1490    10343    10345 1
    1491     3506     3508 1
    1492     7049     7051 1
    1493     3701     3702 1
    1494     1532     1533 1
    1495     1433     1434 1
    1496     3951     3952 1
    1497     3085     3086 1
    1498     9299     9301 1
    1499    10352    10354 1
    1500    12080    12082 1
    1501    10163    10165 1
    1502     5870     5872 1
    1503     7580     7581 1
    1504    12269    12271 1
    1505    10712    10713 1
    1506     6014     6015 1
    1507    11063    11064 1
    1508     8012     8013 1
    1509     7850     7851 1
    1510     8255     8256 1
    1511      840      841 1
    1512      834      835 1
    1513     1325     1326 1
    1514     5579     5581 1
    1515     7739     7741 1
    1516     9872     9874 1
    1517     6902     6904 1
    1518     3875     3876 1
    1519     8819     8821 1
    1520    11789    11791 1
    1521     5741     5743 1
    1522     1687     1688 1
    1523     5672     5673 1
    1524     8129     8130 1
    1525     8588     8589 1
    1526    11180    11181 1
    1527     6827     6828 1
    1528     5132     5133 1
    1529     6293     6294 1
    1530     8048     8049 1
    1531     9803     9804 1
    1532     2895     2896 1
    1533     3666     3645 1
    1534    10154    10155 1
    1535     1596     1597 1
    1536     3580     3582 1
    1537     5117     5118 1
    1538     5837     5839 1
    1539    10967    10969 1
    1540    11885    11887 1
    1541     7997     7999 1
    1542     4478     4464 1
    1543     4427     4428 1
    1544     4283     4284 1
    1545     2750     2752 1
    1546      966      967 1
    1547    11330    11331 1
    1548     8441     8442 1
    1549    11492    11493 1
    1550     8360     8361 1
    1551     8198     8199 1
    1552     6362     6363 1
    1553     4365     4366 1
    1554     5282     5283 1
    1555     9476     9477 1
    1556     8279     8280 1
    1557     3482     3477 1
    1558      842      843 1
    1559     3315     3316 1
    1560     1149     1150 1
    1561     4564     4565 1
    1562    11279    11281 1
    1563     5231     5233 1
    1564    11198    11200 1
    1565     9362     9364 1
    1566    10415    10417 1
    1567    10766    10768 1
    1568     6311     6313 1
    1569    10496    10498 1
    1570    11036    11038 1
    1571     9443     9445 1
    1572     4928     4929 1
    1573     3074     3075 1
    1574     8138     8139 1
    1575     3631     3632 1
    1576     1001     1002 1
    1577      977      978 1
    1578     1624     1625 1
    1579     2224     2225 1
    1580     1921     1922 1
    1581     5039     5040 1
    1582      926      927 1
    1583     4910     4911 1
    1584     4194     4195 1
    1585      675      676 1
    1586      750      751 1
    1587     2353     2354 1
    1588     2999     3001 1
    1589     4507     4508 1
    1590     7475     7476 1
    1591     8717     8718 1
    1592     7637     7638 1
    1593     9932     9933 1
    1594       35       36 1
    1595     3786     3787 1
    1596     7124     7125 1
    1597    10094    10095 1
    1598     8012     8014 1
    1599     8781     8780 1
    1600     3710     3711 1
    1601     1214     1215 1
    1602      229      230 1
    1603     8288     8289 1
    1604      980      982 1
    1605       62       64 1
    1606      835      836 1
    1607      181      182 1
    1608      626      627 1
    1609     2218     2204 1
    1610     1407     1408 1
    1611     9422     9424 1
    1612     7424     7426 1
    1613     4943     4945 1
    1614    10637    10639 1
    1615     9503     9505 1
    1616     9260     9262 1
    1617    10394    10396 1
    1618    10232    10234 1
    1619      468      469 1
    1620     9833     9835 1
    1621     7835     7837 1
    1622     2263     2264 1
    1623       38       39 1
    1624     5462     5463 1
    1625     4964     4966 1
    1626     8552     8553 1
    1627     1277     1278 1
    1628     4922     4923 1
    1629     4769     4770 1
    1630    12164    12166 1
    1631      653      652 1
    1632     4192     4193 1
    1633      823      824 1
    1634     3330     3331 1
    1635     2381     2382 1
    1636      682      661 1
    1637     2532     2533 1
    1638     1509     1510 1
    1639     1207     1208 1
    1640     4072     4073 1
    1641      698      699 1
    1642     6779     6780 1
    1643     7628     7629 1
    1644     7466     7467 1
    1645     9464     9465 1
    1646    10679    10680 1
    1647     7547     7548 1
    1648     4787     4788 1
    1649     4181     4182 1
    1650    10550    10551 1
    1651     2200     2201 1
    1652    12065    12066 1
    1653     2437     2438 1
    1654     3724     3725 1
    1655      370      371 1
    1656     1479     1480 1
    1657     4246     4247 1
    1658     2646     2647 1
    1659     1670     1669 1
    1660     1065     1066 1
    1661     3992     3994 1
    1662      852      853 1
    1663     1073     1074 1
    1664     3126     3127 1
    1665     4850     4851 1
    1666     4802     4803 1
    1667     3050     3051 1
    1668      115      120 1
    1669    10958    10960 1
    1670     4124     4125 1
    1671     2351     2353 1
    1672     3227     3228 1
    1673      440      442 1
    1674     2678     2679 1
    1675     2391     2394 1
    1676     7316     7318 1
    1677     2929     2928 1
    1678     2130     2131 1
    1679     8078     8080 1
    1680     3801     3806 1
    1681    11813    11815 1
    1682     8681     8683 1
    1683     6764     6766 1
    1684     3960     3961 1
    1685     4080     4081 1
    1686     1929     1930 1
    1687     6602     6604 1
    1688     6275     6276 1
    1689     8519     8521 1
    1690     7028     7029 1
    1691    10871    10872 1
    1692      534      535 1
    1693     8981     8982 1
    1694      257      258 1
    1695     3984     3985 1
    1696     4170     4171 1
    1697     1565     1566 1
    1698     6155     6156 1
    1699     8072     8073 1
    1700      709      714 1
    1701    11123    11124 1
    1702     3817     3818 1
    1703     3161     3162 1
    1704     2447     2448 1
    1705     4961     4962 1
    1706     2674     2675 1
    1707     5051     5052 1
    1708    10724    10725 1
    1709    10778    10779 1
    1710     6752     6753 1
    1711     1877     1878 1
    1712     4973     4974 1
    1713     1422     1423 1
    1714     6704     6705 1
    1715    11753    11754 1
    1716    11834    11835 1
    1717     9836     9837 1
    1718     9674     9675 1
    1719     8783     8784 1
    1720     5786     5787 1
    1721     6947     6948 1
    1722     5624     5625 1
    1723     5705     5706 1
    1724     9695     9696 1
    1725    11207    11208 1
    1726     3747     3752 1
    1727     3962     3967 1
    1728     3184     3185 1
    1729     1395     1396 1
    1730     1604     1605 1
    1731     2975     2976 1
    1732     2973     2974 1
    1733     4847     4848 1
    1734      522      523 1
    1735     1583     1584 1
    1736     5402     5404 1
    1737     8798     8800 1
    1738     9689     9691 1
    1739     6530     6532 1
    1740     5207     5209 1
    1741    11417    11419 1
    1742     5720     5722 1
    1743     9851     9853 1
    1744     5450     5452 1
    1745    11660    11662 1
    1746     9662     9664 1
    1747     2635     2634 1
    1748     1641     1642 1
    1749     5082     5081 1
    1750     2210     2211 1
    1751      384      389 1
    1752     2533     2534 1
    1753     3539     3541 1
    1754     5708     5709 1
    1755     6707     6708 1
    1756    11837    11838 1
    1757    11756    11757 1
    1758     3856     3857 1
    1759    11744    11746 1
    1760     9839     9840 1
    1761     5789     5790 1
    1762     9677     9678 1
    1763     6857     6859 1
    1764    10367    10369 1
    1765     9989     9991 1
    1766     1865     1866 1
    1767    10529    10531 1
    1768     9314     9316 1
    1769     7349     7351 1
    1770    11483    11485 1
    1771    11321    11323 1
    1772     8675     8677 1
    1773     6758     6760 1
    1774     8513     8515 1
    1775     1299     1300 1
    1776     5273     5275 1
    1777     8189     8191 1
    1778     6596     6598 1
    1779    11807    11809 1
    1780     3668     3669 1
    1781     3586     3588 1
    1782     1618     1619 1
    1783      520      521 1
    1784     4629     4630 1
    1785     4480     4465 1
    1786     3818     3819 1
    1787     2719     2718 1
    1788     4027     4028 1
    1789     2156     2155 1
    1790     5717     5718 1
    1791     4195     4196 1
    1792     1850     1851 1
    1793     1158     1159 1
    1794     4175     4176 1
    1795     2837     2838 1
    1796     2550     2549 1
    1797     2852     2853 1
    1798      946      947 1
    1799     9101     9103 1
    1800    12314    12316 1
    1801    10829    10831 1
    1802    10748    10750 1
    1803    10316    10318 1
    1804     9344     9346 1
    1805     7778     7780 1
    1806     7508     7510 1
    1807     7535     7537 1
    1808    12233    12235 1
    1809      987      989 1
    1810     2425     2426 1
    1811    10580    10582 1
    1812     2867     2868 1
    1813     7490     7492 1
    1814     9326     9328 1
    1815    12296    12298 1
    1816    10460    10462 1
    1817     9083     9085 1
    1818     7247     7249 1
    1819     7166     7168 1
    1820    10298    10300 1
    1821      801      800 1
    1822    12215    12217 1
    1823      479      480 1
    1824     1058     1059 1
    1825     3592     3593 1
    1826      224      225 1
    1827     7337     7339 1
    1828    11900    11902 1
    1829     9857     9858 1
    1830     9155     9156 1
    1831     3451     3452 1
    1832     8804     8805 1
    1833     7238     7239 1
    1834     6725     6726 1
    1835    10775    10776 1
    1836     6320     6321 1
    1837     5726     5727 1
    1838     3331     3332 1
    1839     7988     7989 1
    1840     1078     1079 1
    1841       59       60 1
    1842     5132     5134 1
    1843     8222     8223 1
    1844     8753     8755 1
    1845       53       54 1
    1846     6971     6973 1
    1847     3154     3157 1
    1848    11933    11934 1
    1849     2193     2192 1
    1850     3089     3090 1
    1851      393      394 1
    1852     6272     6273 1
    1853     2721     2726 1
    1854      876      871 1
    1855     3755     3757 1
    1856     4329     4330 1
    1857     1498     1499 1
    1858     4575     4576 1
    1859    10550    10552 1
    1860     6371     6372 1
    1861    11258    11259 1
    1862    10205    10206 1
    1863     9827     9828 1
    1864     9152     9153 1
    1865    11063    11065 1
    1866    11582    11583 1
    1867    12122    12123 1
    1868     6911     6912 1
    1869     7235     7236 1
    1870     1519     1520 1
    1871     2086     2087 1
    1872      590      591 1
    1873     2884     2885 1
    1874     4218     4219 1
    1875     1564     1565 1
    1876     4736     4737 1
    1877     1061     1062 1
    1878      295      296 1
    1879     4886     4887 1
    1880     1445     1446 1
    1881     4165     4166 1
    1882     4240     4241 1
    1883     9551     9553 1
    1884     2385     2386 1
    1885     4513     4514 1
    1886     4429     4430 1
    1887     1718     1719 1
    1888      488      490 1
    1889     8852     8853 1
    1890     9743     9744 1
    1891    11741    11742 1
    1892     6854     6855 1
    1893     8771     8772 1
    1894    11984    11985 1
    1895    10148    10149 1
    1896     9014     9015 1
    1897     5774     5775 1
    1898     9905     9906 1
    1899      352      353 1
    1900    11579    11580 1
    1901     6692     6693 1
    1902      190      191 1
    1903     5990     5992 1
    1904    10811    10812 1
    1905     7760     7761 1
    1906    10730    10731 1
    1907     3208     3209 1
    1908     2640     2619 1
    1909     6518     6520 1
    1910     7679     7680 1
    1911     5195     5197 1
    1912    10649    10650 1
    1913     3251     3252 1
    1914     3239     3240 1
    1915     1743     1729 1
    1916     9821     9822 1
    1917     2344     2345 1
    1918     3323     3324 1
    1919    11678    11679 1
    1920     7265     7267 1
    1921     7652     7654 1
    1922     3338     3339 1
    1923      844      823 1
    1924    12170    12171 1
    1925     2857     2858 1
    1926     3585     3590 1
    1927     9884     9886 1
    1928     3975     3976 1
    1929     4100     4101 1
    1930     2938     2940 1
    1931     5348     5349 1
    1932     8846     8847 1
    1933     1168     1169 1
    1934     3151     3152 1
    1935     4398     4399 1
    1936     4314     4315 1
    1937     3884     3886 1
    1938     6566     6567 1
    1939     8402     8403 1
    1940     2181     2182 1
    1941     6647     6648 1
    1942      995      996 1
    1943     3150     3151 1
    1944      494      493 1
    1945     1405     1408 1
    1946     7412     7413 1
    1947     9410     9411 1
    1948     9248     9249 1
    1949     4811     4812 1
    1950    10220    10221 1
    1951    10625    10626 1
    1952    10382    10383 1
    1953     9491     9492 1
    1954      890      891 1
    1955     1323     1324 1
    1956      248      249 1
    1957      236      237 1
    1958     3971     3973 1
    1959    10001    10003 1
    1960     8948     8950 1
    1961     7220     7222 1
    1962     3355     3356 1
    1963     9110     9112 1
    1964    11918    11920 1
    1965     6869     6871 1
    1966     4396     4397 1
    1967     9137     9139 1
    1968     4249     4250 1
    1969     3150     3148 1
    1970        5        4 1
    1971     3115     3114 1
    1972     4088     4089 1
    1973     4475     4476 1
    1974      805      806 1
    1975     4094     4095 1
    1976     6992     6993 1
    1977     6864     6863 1
    1978     8943     8942 1
    1979     2599     2600 1
    1980     2175     2176 1
    1981     2322     2323 1
    1982     1600     1601 1
    1983     3342     3343 1
    1984     9383     9384 1
    1985     4988     4989 1
    1986     7904     7905 1
    1987     3585     3586 1
    1988     5828     5830 1
    1989     6806     6808 1
    1990     6713     6715 1
    1991     2341     2340 1
    1992     2047     2033 1
    1993     1830     1831 1
    1994     2133     2134 1
    1995       13       14 1
    1996     7547     7549 1
    1997     7466     7468 1
    1998     7628     7630 1
    1999     9464     9466 1
    2000    10679    10681 1
    2001     9377     9378 1
    2002     4787     4789 1
    2003     1419     1420 1
    2004     2405     2407 1
    2005     9305     9306 1
    2006      958      959 1
    2007     2534     2536 1
    2008      269      270 1
    2009     1129     1130 1
    2010      475      476 1
    2011     1556     1557 1
    2012     4252     4237 1
    2013     4613     4598 1
    2014     3206     3211 1
    2015     1859     1860 1
    2016      347      348 1
    2017     9242     9243 1
    2018     9404     9405 1
    2019    10619    10620 1
    2020     7406     7407 1
    2021     4530     4531 1
    2022    10214    10215 1
    2023    10376    10377 1
    2024     9485     9486 1
    2025     1538     1537 1
    2026     2083     2084 1
    2027     6482     6483 1
    2028    12125    12126 1
    2029     5600     5601 1
    2030     2625     2624 1
    2031      959      960 1
    2032    12275    12277 1
    2033      898      877 1
    2034     3776     3778 1
    2035     7421     7423 1
    2036     8501     8503 1
    2037    10391    10393 1
    2038     5261     5263 1
    2039     5423     5425 1
    2040     1427     1428 1
    2041     6584     6586 1
    2042     9500     9502 1
    2043    11471    11473 1
    2044     8339     8341 1
    2045     9977     9979 1
    2046     1554     1555 1
    2047     3262     3265 1
    2048     7076     7078 1
    2049     9899     9901 1
    2050     1002     1003 1
    2051     8295     8294 1
    2052     1211     1212 1
    2053     8619     8618 1
    2054     9233     9234 1
    2055    11825    11826 1
    2056     3829     3830 1
    2057     6401     6402 1
    2058     4665     4666 1
    2059     4134     4135 1
    2060     7355     7357 1
    2061     6155     6157 1
    2062     5075     5077 1
    2063    11123    11125 1
    2064     8072     8074 1
    2065    10880    10882 1
    2066     7910     7912 1
    2067     4994     4996 1
    2068     6608     6609 1
    2069    10778    10780 1
    2070    10724    10726 1
    2071     4973     4975 1
    2072     2564     2565 1
    2073     8615     8617 1
    2074    11834    11836 1
    2075     9674     9676 1
    2076     8783     8785 1
    2077     5786     5788 1
    2078     6704     6706 1
    2079    11753    11755 1
    2080     9836     9838 1
    2081     6947     6949 1
    2082     5624     5626 1
    2083     5705     5707 1
    2084     3563     3564 1
    2085     3354     3355 1
    2086     2709     2710 1
    2087     3996     3997 1
    2088     2211     2212 1
    2089     4366     4367 1
    2090     3292     3293 1
    2091      182      183 1
    2092     2880     2881 1
    2093     3607     3608 1
    2094     2953     2954 1
    2095     4333     4334 1
    2096     4636     4637 1
    2097     2334     2319 1
    2098    11807    11808 1
    2099      276      281 1
    2100     4796     4798 1
    2101     4874     4876 1
    2102     2792     2793 1
    2103     6797     6798 1
    2104     5609     5610 1
    2105     4176     4161 1
    2106    12167    12168 1
    2107     6803     6805 1
    2108     3485     3486 1
    2109     6914     6916 1
    2110     7751     7753 1
    2111    11801    11803 1
    2112     9545     9546 1
    2113    10760    10761 1
    2114     7709     7710 1
    2115     7871     7872 1
    2116     7790     7791 1
    2117    10841    10842 1
    2118     5591     5593 1
    2119      208      209 1
    2120    10598    10599 1
    2121     4343     4344 1
    2122     2773     2774 1
    2123     8624     8625 1
    2124     2667     2672 1
    2125     8768     8769 1
    2126     8930     8931 1
    2127     5825     5826 1
    2128    10145    10146 1
    2129     5501     5502 1
    2130    11333    11334 1
    2131     6851     6852 1
    2132     6824     6825 1
    2133     8363     8364 1
    2134    11711    11712 1
    2135     2804     2806 1
    2136     2819     2818 1
    2137     4805     4806 1
    2138     5693     5695 1
    2139     7388     7390 1
    2140     5732     5733 1
    2141    11022    11021 1
    2142     5861     5862 1
    2143    12071    12072 1
    2144     7346     7347 1
    2145     9182     9183 1
    2146    12152    12153 1
    2147    10073    10074 1
    2148     2348     2349 1
    2149     5699     5700 1
    2150     7022     7023 1
    2151     7517     7518 1
    2152     1723     1724 1
    2153     9254     9255 1
    2154     3444     3445 1
    2155     9878     9880 1
    2156    10208    10210 1
    2157     2472     2473 1
    2158     2830     2833 1
    2159     8954     8955 1
    2160     6875     6876 1
    2161    10007    10008 1
    2162     9116     9117 1
    2163     9143     9144 1
    2164    11924    11925 1
    2165    10196    10197 1
    2166     7226     7227 1
    2167    12113    12114 1
    2168     6260     6262 1
    2169     3703     3701 1
    2170     1087     1092 1
    2171      406      407 1
    2172     1085     1086 1
    2173     8606     8608 1
    2174     3963     3964 1
    2175     1860     1861 1
    2176     3769     3770 1
    2177     1501     1502 1
    2178     4245     4246 1
    2179     4389     4390 1
    2180    11684    11686 1
    2181     9665     9666 1
    2182     4949     4950 1
    2183     2384     2385 1
    2184    11771    11772 1
    2185     9752     9753 1
    2186      224      226 1
    2187      736      715 1
    2188     4808     4809 1
    2189     6200     6201 1
    2190    11087    11088 1
    2191     1200     1201 1
    2192     5033     5035 1
    2193      166      167 1
    2194     1105     1106 1
    2195      314      315 1
    2196     2766     2767 1
    2197     1186     1187 1
    2198      293      294 1
    2199     1371     1372 1
    2200     1153     1154 1
    2201     1598     1599 1
    2202     2388     2389 1
    2203     4162     4163 1
    2204    12203    12204 1
    2205     4282     4283 1
    2206     3423     3424 1
    2207     1022     1023 1
    2208      362      363 1
    2209     1670     1671 1
    2210     1691     1692 1
    2211     6995     6997 1
    2212     1490     1491 1
    2213     3347     3348 1
    2214     2926     2927 1
    2215     4532     4533 1
    2216     9240     9239 1
    2217     3707     3708 1
    2218     8174     8176 1
    2219      778      779 1
    2220     3465     3466 1
    2221     3244     3245 1
    2222     1525     1526 1
    2223     8528     8529 1
    2224     4506     4505 1
    2225     2060     2061 1
    2226     4359     4358 1
    2227     4098     4084 1
    2228     4584     4585 1
    2229      952      953 1
    2230     6371     6373 1
    2231    10205    10207 1
    2232     9827     9829 1
    2233    11582    11584 1
    2234     8450     8452 1
    2235    12122    12124 1
    2236     6911     6913 1
    2237    11798    11800 1
    2238     9881     9883 1
    2239     7235     7237 1
    2240      499      500 1
    2241    12305    12306 1
    2242     8903     8904 1
    2243      382      383 1
    2244     9623     9625 1
    2245     1738     1739 1
    2246     2902     2903 1
    2247     8363     8365 1
    2248     6554     6555 1
    2249     8642     8643 1
    2250     4859     4861 1
    2251    12014    12016 1
    2252     3737     3738 1
    2253     3083     3084 1
    2254     3368     3373 1
    2255     4745     4746 1
    2256     5684     5686 1
    2257     4114     4115 1
    2258     2557     2558 1
    2259      964      965 1
    2260     3327     3328 1
    2261     2111     2112 1
    2262     4470     4471 1
    2263     4620     4621 1
    2264     3622     3623 1
    2265     3290     3291 1
    2266     2357     2358 1
    2267     2740     2741 1
    2268    10319    10320 1
    2269     5027     5028 1
    2270     6188     6189 1
    2271     3394     3395 1
    2272      325      328 1
    2273      565      566 1
    2274    12113    12115 1
    2275     3904     3906 1
    2276     2311     2312 1
    2277     9788     9789 1
    2278    10604    10605 1
    2279     1349     1350 1
    2280      695      696 1
    2281      916      917 1
    2282     3276     3277 1
    2283     2196     2197 1
    2284     2118     2119 1
    2285     1815     1816 1
    2286     2640     2641 1
    2287     1962     1963 1
    2288     2265     2266 1
    2289     3188     3189 1
    2290      128      129 1
    2291     1655     1656 1
    2292     1511     1512 1
    2293     3732     3733 1
    2294     3076     3077 1
    2295     3521     3522 1
    2296     1764     1749 1
    2297     4096     4097 1
    2298     8663     8664 1
    2299      634      635 1
    2300    11705    11707 1
    2301     1543     1544 1
    2302     2404     2403 1
    2303     4466     4467 1
    2304     3562     3563 1
    2305     4007     4008 1
    2306     8786     8787 1
    2307    11495    11496 1
    2308     3909     3914 1
    2309     1287     1288 1
    2310     8381     8383 1
    2311     3226     3227 1
    2312     8402     8404 1
    2313     6566     6568 1
    2314     6647     6649 1
    2315       34       35 1
    2316     6077     6079 1
    2317     6794     6796 1
    2318     4811     4813 1
    2319     7412     7414 1
    2320     8030     8031 1
    2321     9410     9412 1
    2322    10220    10222 1
    2323     9491     9493 1
    2324     1357     1358 1
    2325    10625    10627 1
    2326    10382    10384 1
    2327     3100     3103 1
    2328     3819     3820 1
    2329     4040     4041 1
    2330     2450     2455 1
    2331     2565     2566 1
    2332     6638     6640 1
    2333    10034    10035 1
    2334      914      915 1
    2335     1338     1339 1
    2336     3820     3821 1
    2337     7802     7803 1
    2338     3257     3258 1
    2339    11372    11373 1
    2340     8750     8751 1
    2341     9701     9702 1
    2342     8756     8757 1
    2343    11618    11619 1
    2344     8648     8649 1
    2345    11726    11727 1
    2346    10133    10134 1
    2347     9971     9972 1
    2348     8918     8919 1
    2349    11759    11761 1
    2350     1194     1199 1
    2351     3010     3011 1
    2352     3873     3874 1
    2353    11417    11418 1
    2354     6530     6531 1
    2355       24       25 1
    2356     4057     4058 1
    2357     2982     2983 1
    2358     3618     3619 1
    2359     5564     5566 1
    2360     3134     3135 1
    2361     5882     5884 1
    2362    10175    10177 1
    2363    12092    12094 1
    2364      367      368 1
    2365    10715    10717 1
    2366     4618     4619 1
    2367     4543     4544 1
    2368     4324     4325 1
    2369    10553    10555 1
    2370    10280    10282 1
    2371     8714     8716 1
    2372    11023    11021 1
    2373     1724     1725 1
    2374      680      681 1
    2375     2894     2893 1
    2376     2610     2611 1
    2377     9575     9577 1
    2378     1865     1864 1
    2379     1949     1948 1
    2380      781      782 1
    2381     4451     4452 1
    2382     2417     2418 1
    2383     3059     3060 1
    2384     2850     2851 1
    2385     4304     4305 1
    2386      572      573 1
    2387     3674     3675 1
    2388     4212     4198 1
    2389     9284     9285 1
    2390    11879    11880 1
    2391     2506     2507 1
    2392     6065     6066 1
    2393     3499     3500 1
    2394     9494     9496 1
    2395     4919     4921 1
    2396      974      976 1
    2397     8417     8418 1
    2398     3419     3420 1
    2399     3175     3174 1
    2400     9242     9244 1
    2401     9404     9406 1
    2402     7406     7408 1
    2403    10619    10621 1
    2404    10214    10216 1
    2405    10376    10378 1
    2406     9485     9487 1
    2407     3577     3576 1
    2408     2491     2492 1
    2409     4005     4006 1
    2410     1833     1834 1
    2411     2055     2056 1
    2412      729      728 1
    2413     3897     3898 1
    2414     2816     2817 1
    2415      397      398 1
    2416      179      180 1
    2417     2337     2340 1
    2418     2796     2795 1
    2419     2028     2014 1
    2420     2517     2518 1
    2421     2355     2354 1
    2422     3474     3475 1
    2423     7559     7561 1
    2424     2516     2517 1
    2425     7457     7458 1
    2426     1792     1793 1
    2427     2398     2401 1
    2428     4044     4023 1
    2429     7373     7375 1
    2430     8723     8725 1
    2431     7130     7132 1
    2432    10505    10507 1
    2433     9452     9454 1
    2434    10100    10102 1
    2435     9938     9940 1
    2436     2767     2768 1
    2437     2359     2360 1
    2438    10607    10609 1
    2439      364      365 1
    2440     8057     8059 1
    2441     7058     7060 1
    2442     2372     2373 1
    2443     7769     7770 1
    2444    11117    11118 1
    2445     6149     6150 1
    2446    10658    10659 1
    2447     2710     2711 1
    2448     5069     5070 1
    2449    10820    10821 1
    2450     7526     7527 1
    2451     7688     7689 1
    2452     6731     6732 1
    2453     9791     9793 1
    2454     8576     8578 1
    2455     8738     8740 1
    2456     5660     5662 1
    2457     7820     7822 1
    2458     3009     3010 1
    2459     7971     7970 1
    2460     2610     2607 1
    2461     2478     2479 1
    2462     3218     3219 1
    2463     5456     5457 1
    2464    11666    11667 1
    2465     6455     6456 1
    2466    11423    11424 1
    2467     9668     9669 1
    2468     5213     5214 1
    2469     6536     6537 1
    2470     5618     5619 1
    2471     7748     7749 1
    2472     3985     3986 1
    2473     2677     2678 1
    2474    10283    10284 1
    2475     6236     6237 1
    2476     9992     9993 1
    2477     4206     4207 1
    2478     1689     1691 1
    2479     2829     2834 1
    2480      733      734 1
    2481     4535     4521 1
    2482     3768     3769 1
    2483     3094     3096 1
    2484    11222    11223 1
    2485     5174     5175 1
    2486     3377     3378 1
    2487     6416     6417 1
    2488     6254     6255 1
    2489    11303    11304 1
    2490     2313     2299 1
    2491     2217     2218 1
    2492     5012     5013 1
    2493     6173     6174 1
    2494     3949     3950 1
    2495    11909    11911 1
    2496     7871     7873 1
    2497     7709     7711 1
    2498     9545     9547 1
    2499    10760    10762 1
    2500     7790     7792 1
    2501    10841    10843 1
    2502    10598    10600 1
    2503     6383     6384 1
    2504    11003    11005 1
    2505       41       40 1
    2506     6170     6171 1
    2507     2316     2317 1
    2508     4499     4484 1
    2509     9587     9589 1
    2510     4101     4102 1
    2511    11873    11875 1
    2512    11711    11713 1
    2513     4347     4348 1
    2514     8768     8770 1
    2515     3748     3750 1
    2516     8201     8203 1
    2517     8930     8932 1
    2518    12278    12280 1
    2519     9956     9958 1
    2520     1193     1194 1
    2521    10334    10336 1
    2522    11210    11211 1
    2523     5162     5163 1
    2524    11291    11292 1
    2525     6242     6243 1
    2526     7241     7242 1
    2527    10292    10293 1
    2528      871      872 1
    2529      992      993 1
    2530    10127    10128 1
    2531     1682     1683 1
    2532     2416     2417 1
    2533     6113     6115 1
    2534      498      499 1
    2535     3528     3525 1
    2536     4306     4307 1
    2537     3691     3692 1
    2538     4657     4658 1
    2539      371      372 1
    2540     1658     1659 1
    2541      377      378 1
    2542     7880     7881 1
    2543    10499    10500 1
    2544     7367     7368 1
    2545     9446     9447 1
    2546    10850    10851 1
    2547      375      376 1
    2548    11012    11013 1
    2549     7718     7719 1
    2550     6392     6393 1
    2551     4517     4518 1
    2552     2319     2320 1
    2553     7976     7977 1
    2554     2172     2173 1
    2555     9947     9948 1
    2556     5816     5817 1
    2557     5897     5898 1
    2558    11702    11703 1
    2559     5492     5493 1
    2560    10784    10785 1
    2561     4581     4582 1
    2562     1147     1148 1
    2563     2591     2592 1
    2564     3030     3031 1
    2565      548      550 1
    2566     1146     1141 1
    2567     6581     6582 1
    2568     9752     9754 1
    2569     2964     2965 1
    2570     4286     4287 1
    2571     9533     9535 1
    2572     3531     3532 1
    2573     3547     3548 1
    2574     7451     7453 1
    2575     7034     7036 1
    2576     2009     1995 1
    2577      865      868 1
    2578     4673     4675 1
    2579     4997     4998 1
    2580    11963    11964 1
    2581     3957     3960 1
    2582     4617     4618 1
    2583     1889     1888 1
    2584     2971     2972 1
    2585     2737     2738 1
    2586     3391     3392 1
    2587      825      826 1
    2588     2098     2099 1
    2589      353      354 1
    2590      774      775 1
    2591      602      604 1
    2592     1384     1363 1
    2593     3494     3493 1
    2594     9221     9222 1
    2595     1278     1279 1
    2596     9059     9060 1
    2597    10112    10113 1
    2598    10193    10194 1
    2599     7223     7224 1
    2600    12110    12111 1
    2601    10274    10275 1
    2602     9140     9141 1
    2603     4259     4260 1
    2604     2040     2041 1
    2605    11144    11145 1
    2606     1169     1170 1
    2607     4706     4707 1
    2608     2069     2070 1
    2609      359      360 1
    2610     4009     4010 1
    2611     8246     8248 1
    2612    11054    11056 1
    2613     8084     8086 1
    2614     7841     7843 1
    2615    11135    11137 1
    2616     8003     8005 1
    2617     4000     4001 1
    2618     6005     6007 1
    2619     8567     8568 1
    2620     4751     4753 1
    2621     7162     7160 1
    2622      858      859 1
    2623     3554     3553 1
    2624     4166     4167 1
    2625     8660     8662 1
    2626    11024    11025 1
    2627     5747     5748 1
    2628     1949     1950 1
    2629     1760     1761 1
    2630     1751     1752 1
    2631      872      875 1
    2632     2997     2998 1
    2633    11573    11575 1
    2634       60       65 1
    2635     3850     3852 1
    2636     5027     5029 1
    2637     6188     6190 1
    2638    10319    10321 1
    2639     9236     9238 1
    2640     2463     2464 1
    2641     2576     2577 1
    2642     3088     3087 1
    2643    10955    10957 1
    2644     5390     5391 1
    2645    12185    12186 1
    2646     1776     1777 1
    2647     1301     1300 1
    2648     2520     2521 1
    2649     1471     1472 1
    2650     1954     1955 1
    2651      749      750 1
    2652     1120     1121 1
    2653    10583    10584 1
    2654     1572     1577 1
    2655     1816     1817 1
    2656     1210     1211 1
    2657     6893     6894 1
    2658    10187    10188 1
    2659     9134     9135 1
    2660    11780    11781 1
    2661     7217     7218 1
    2662     9215     9216 1
    2663    12347    12348 1
    2664     8810     8811 1
    2665     9053     9054 1
    2666     5813     5814 1
    2667     4231     4217 1
    2668     9560     9561 1
    2669    10613    10614 1
    2670      385      386 1
    2671     3836     3837 1
    2672    12335    12337 1
    2673     9203     9205 1
    2674     7529     7531 1
    2675     7205     7207 1
    2676     7772     7774 1
    2677    10742    10744 1
    2678     7448     7450 1
    2679    12254    12256 1
    2680     7691     7693 1
    2681    10823    10825 1
    2682     5204     5206 1
    2683     1136     1138 1
    2684     1364     1363 1
    2685     1662     1663 1
    2686     3577     3578 1
    2687     3132     3133 1
    2688     4295     4296 1
    2689       93       94 1
    2690     5406     5405 1
    2691     1745     1746 1
    2692     2379     2378 1
    2693     5033     5034 1
    2694     2587     2588 1
    2695     9596     9597 1
    2696     6113     6114 1
    2697    11162    11163 1
    2698     8462     8463 1
    2699     1943     1944 1
    2700      707      708 1
    2701     6194     6195 1
    2702     8219     8220 1
    2703      582      583 1
    2704      158      159 1
    2705     2096     2097 1
    2706     4405     4406 1
    2707     4679     4680 1
    2708    11372    11374 1
    2709     1332     1333 1
    2710     8648     8650 1
    2711    11618    11620 1
    2712     8756     8758 1
    2713    10133    10135 1
    2714     9701     9703 1
    2715    11726    11728 1
    2716     5978     5980 1
    2717     3180     3159 1
    2718    12197    12199 1
    2719     8918     8920 1
    2720    11090    11091 1
    2721     3679     3680 1
    2722     2601     2602 1
    2723      400      401 1
    2724     3467     3468 1
    2725     2154     2155 1
    2726     1773     1774 1
    2727     1472     1473 1
    2728      576      577 1
    2729    11477    11478 1
    2730     1504     1505 1
    2731     2736     2737 1
    2732     4493     4494 1
    2733     2948     2949 1
    2734     6431     6432 1
    2735     9347     9348 1
    2736     3752     3753 1
    2737     3798     3799 1
    2738     1587     1586 1
    2739      656      659 1
    2740      979      984 1
    2741      546      551 1
    2742     5615     5617 1
    2743     5780     5782 1
    2744    11990    11992 1
    2745     6860     6862 1
    2746     5657     5658 1
    2747     8573     8574 1
    2748     9734     9735 1
    2749    11975    11976 1
    2750    11543    11544 1
    2751     8735     8736 1
    2752     6926     6927 1
    2753     1084     1082 1
    2754     9626     9627 1
    2755     4106     4107 1
    2756     2046     2047 1
    2757        8        9 1
    2758     2979     2980 1
    2759     3400     3401 1
    2760     3842     3843 1
    2761    11249    11250 1
    2762     9893     9895 1
    2763     8840     8842 1
    2764     9731     9733 1
    2765     3396     3397 1
    2766     6842     6844 1
    2767     5762     5764 1
    2768     9002     9004 1
    2769     5471     5473 1
    2770    11729    11731 1
    2771     6923     6925 1
    2772     1104     1105 1
    2773     4829     4830 1
    2774     3344     3345 1
    2775     2290     2289 1
    2776     7091     7093 1
    2777     9170     9172 1
    2778    12140    12142 1
    2779     7469     7471 1
    2780    10061    10063 1
    2781     7631     7633 1
    2782     9794     9796 1
    2783    11450    11451 1
    2784     9398     9399 1
    2785    10451    10452 1
    2786     1492     1471 1
    2787      142      143 1
    2788     9959     9960 1
    2789    12206    12207 1
    2790     6071     6072 1
    2791     8480     8481 1
    2792     2468     2469 1
    2793     3761     3762 1
    2794     3122     3123 1
    2795    11747    11748 1
    2796    11282    11283 1
    2797     4554     4540 1
    2798    10799    10800 1
    2799      515      516 1
    2800     4327     4328 1
    2801     7457     7459 1
    2802     4555     4556 1
    2803     3650     3651 1
    2804     1708     1709 1
    2805    11384    11385 1
    2806     4859     4860 1
    2807      384      383 1
    2808     8090     8091 1
    2809     8252     8253 1
    2810    11060    11061 1
    2811     8171     8172 1
    2812     4137     4138 1
    2813     7847     7848 1
    2814    11141    11142 1
    2815    10979    10980 1
    2816     8009     8010 1
    2817     6011     6012 1
    2818     3370     3373 1
    2819     2826     2827 1
    2820      684      685 1
    2821     7769     7771 1
    2822    11117    11119 1
    2823     6149     6151 1
    2824     1546     1547 1
    2825     1808     1809 1
    2826    10820    10822 1
    2827     7526     7528 1
    2828    10658    10660 1
    2829     7688     7690 1
    2830     8066     8068 1
    2831      555      556 1
    2832     3433     3431 1
    2833     1157     1156 1
    2834    12212    12213 1
    2835       43       44 1
    2836     3655     3656 1
    2837     3933     3934 1
    2838     3846     3845 1
    2839     7598     7599 1
    2840      859      860 1
    2841      744      745 1
    2842     2978     2979 1
    2843     3832     3833 1
    2844     4895     4896 1
    2845     4450     4451 1
    2846     4303     4304 1
    2847     4432     4433 1
    2848     4351     4352 1
    2849     4579     4580 1
    2850     1661     1662 1
    2851      374      375 1
    2852      855      856 1
    2853     2598     2597 1
    2854    11066    11067 1
    2855     6017     6018 1
    2856     8258     8259 1
    2857     8096     8097 1
    2858    11147    11148 1
    2859     8177     8178 1
    2860     7853     7854 1
    2861     4078     4077 1
    2862     8015     8016 1
    2863     4220     4221 1
    2864    12291    12290 1
    2865     3704     3705 1
    2866      799      800 1
    2867     1341     1340 1
    2868    10982    10984 1
    2869     2104     2090 1
    2870     3203     3204 1
    2871      193      194 1
    2872      402      403 1
    2873     9317     9318 1
    2874     1763     1764 1
    2875     1145     1140 1
    2876     9569     9571 1
    2877     4871     4873 1
    2878     4778     4780 1
    2879     4384     4385 1
    2880     3099     3100 1
    2881     5162     5164 1
    2882    11291    11293 1
    2883     6242     6244 1
    2884     1257     1259 1
    2885     7241     7243 1
    2886    11210    11212 1
    2887    10292    10294 1
    2888     8627     8628 1
    2889     1569     1570 1
    2890     2189     2190 1
    2891     4013     4014 1
    2892     7040     7041 1
    2893    10247    10249 1
    2894    10874    10876 1
    2895       29       30 1
    2896    10142    10143 1
    2897     5480     5482 1
    2898     3401     3402 1
    2899     2642     2643 1
    2900     2734     2735 1
    2901     8348     8349 1
    2902     7430     7431 1
    2903     8429     8430 1
    2904    10427    10428 1
    2905     6350     6351 1
    2906    10940    10941 1
    2907     9374     9375 1
    2908     7376     7377 1
    2909     2750     2751 1
    2910    10508    10509 1
    2911      708      713 1
    2912     3914     3915 1
    2913    10847    10848 1
    2914     6068     6069 1
    2915     1071     1070 1
    2916    10787    10788 1
    2917     7736     7737 1
    2918     7979     7980 1
    2919     5900     5901 1
    2920    10949    10950 1
    2921      630      631 1
    2922      143      144 1
    2923     8165     8166 1
    2924     2761     2762 1
    2925     2675     2677 1
    2926      104      105 1
    2927     3529     3530 1
    2928     1342     1343 1
    2929     1345     1346 1
    2930     5407     5405 1
    2931      688      689 1
    2932     1192     1190 1
    2933     1688     1689 1
    2934     4313     4314 1
    2935     4397     4398 1
    2936     1017     1018 1
    2937     4238     4239 1
    2938      578      579 1
    2939     8457     8456 1
    2940     6378     6377 1
    2941     3241     3242 1
    2942     4185     4186 1
    2943      642      643 1
    2944      196      197 1
    2945     3374     3375 1
    2946      851      852 1
    2947     1869     1870 1
    2948     2016     2017 1
    2949      589      590 1
    2950     7988     7990 1
    2951     1175     1176 1
    2952     4199     4200 1
    2953     2532     2511 1
    2954     2614     2615 1
    2955    10193    10195 1
    2956     9140     9142 1
    2957     7304     7306 1
    2958     9059     9061 1
    2959    10112    10114 1
    2960     9221     9223 1
    2961    12110    12112 1
    2962     7223     7225 1
    2963    10274    10276 1
    2964     2452     2455 1
    2965     2782     2783 1
    2966      967      968 1
    2967     4239     4240 1
    2968     1550     1551 1
    2969     1341     1342 1
    2970     3158     3159 1
    2971     4157     4158 1
    2972      198      200 1
    2973    10685    10687 1
    2974     1115     1116 1
    2975     3964     3966 1
    2976     4566     4565 1
    2977     1834     1835 1
    2978     1981     1982 1
    2979     2134     2135 1
    2980     2281     2282 1
    2981     3410     3411 1
    2982     6296     6297 1
    2983     5135     5136 1
    2984    11183    11184 1
    2985     2486     2487 1
    2986     2105     2106 1
    2987     8669     8670 1
    2988     9614     9616 1
    2989    10484    10485 1
    2990    10403    10404 1
    2991     9350     9351 1
    2992     2613     2614 1
    2993     9431     9432 1
    2994     7595     7596 1
    2995    10565    10566 1
    2996     7352     7353 1
    2997     1142     1145 1
    2998      956      957 1
    2999     1401     1402 1
    3000      133      134 1
    3001     1610     1611 1
    3002     1418     1419 1
    3003     2663     2664 1
    3004    11120    11122 1
    3005     2925     2926 1
    3006     8906     8908 1
    3007    12038    12040 1
    3008     7151     7153 1
    3009     1451     1452 1
    3010     1212     1213 1
    3011     6989     6991 1
    3012     9065     9067 1
    3013     5072     5074 1
    3014     1476     1477 1
    3015     1028     1030 1
    3016    10640    10642 1
    3017      888      887 1
    3018     2409     2410 1
    3019     2854     2855 1
    3020     3926     3927 1
    3021     2019     2020 1
    3022     3663     3664 1
    3023     2965     2966 1
    3024     6692     6694 1
    3025    10475    10477 1
    3026      530      531 1
    3027    12104    12106 1
    3028     3213     3212 1
    3029    11315    11317 1
    3030    12347    12349 1
    3031    11780    11782 1
    3032     5813     5815 1
    3033    10268    10270 1
    3034    10187    10189 1
    3035     9134     9136 1
    3036     9944     9946 1
    3037     9215     9217 1
    3038     9053     9055 1
    3039    10106    10108 1
    3040     3991     3992 1
    3041     2139     2140 1
    3042     2046     2045 1
    3043     2653     2654 1
    3044     2620     2621 1
    3045     4793     4794 1
    3046     3536     3537 1
    3047     7952     7954 1
    3048      176      177 1
    3049      141      140 1
    3050     3861     3862 1
    3051     3548     3549 1
    3052     3109     3110 1
    3053     1256     1257 1
    3054     3591     3590 1
    3055    10097    10099 1
    3056     2456     2457 1
    3057     2351     2352 1
    3058     2248     2249 1
    3059     2020     2021 1
    3060     7946     7948 1
    3061     6785     6786 1
    3062     1304     1307 1
    3063     2238     2239 1
    3064    10985    10986 1
    3065     1838     1824 1
    3066     2442     2443 1
    3067     3520     3521 1
    3068     2430     2431 1
    3069     3508     3509 1
    3070     3300     3301 1
    3071     3727     3728 1
    3072     1024     1025 1
    3073      720      721 1
    3074     3091     3092 1
    3075      579      580 1
    3076    12292    12290 1
    3077      986      985 1
    3078    11654    11656 1
    3079    11735    11737 1
    3080     6848     6850 1
    3081     1520     1521 1
    3082     3654     3655 1
    3083     3445     3446 1
    3084    11978    11980 1
    3085     6443     6445 1
    3086    10142    10144 1
    3087     5768     5770 1
    3088     1466     1467 1
    3089     4718     4719 1
    3090     4790     4791 1
    3091     3770     3771 1
    3092     3915     3916 1
    3093      863      864 1
    3094      294      295 1
    3095     1372     1373 1
    3096      503      504 1
    3097      948      949 1
    3098     6431     6433 1
    3099     4518     4503 1
    3100     9347     9349 1
    3101     3232     3233 1
    3102     2681     2682 1
    3103     6983     6984 1
    3104    12032    12033 1
    3105     7145     7146 1
    3106     8468     8469 1
    3107    11114    11115 1
    3108     4158     4159 1
    3109    10439    10440 1
    3110     9386     9387 1
    3111    11438    11439 1
    3112     8900     8901 1
    3113     2506     2509 1
    3114     3800     3805 1
    3115     7022     7024 1
    3116     6926     6928 1
    3117     9734     9736 1
    3118     2254     2253 1
    3119     8735     8737 1
    3120     8573     8575 1
    3121     5657     5659 1
    3122    11543    11545 1
    3123     9896     9898 1
    3124     8843     8845 1
    3125     5765     5767 1
    3126     3312     3313 1
    3127     6986     6988 1
    3128     2999     3000 1
    3129     1745     1730 1
    3130     4258     4259 1
    3131     1686     1687 1
    3132     1488     1487 1
    3133     4385     4386 1
    3134     2609     2610 1
    3135    11027    11028 1
    3136     1795     1796 1
    3137      867      868 1
    3138     8651     8652 1
    3139     3647     3649 1
    3140      468      470 1
    3141     4504     4505 1
    3142     4204     4205 1
    3143     4588     4589 1
    3144     4357     4358 1
    3145     1446     1447 1
    3146      801      802 1
    3147      425      426 1
    3148      204      205 1
    3149      665      666 1
    3150     2428     2426 1
    3151     6092     6094 1
    3152     1039     1040 1
    3153      595      598 1
    3154      829      830 1
    3155     1044     1045 1
    3156    10337    10339 1
    3157      408      409 1
    3158     2325     2326 1
    3159     6221     6222 1
    3160     6059     6060 1
    3161     5951     5952 1
    3162     5222     5223 1
    3163     5141     5142 1
    3164      759      760 1
    3165     6464     6465 1
    3166     6302     6303 1
    3167    11270    11271 1
    3168    10919    10920 1
    3169     4127     4128 1
    3170     8384     8385 1
    3171    10601    10603 1
    3172     9983     9985 1
    3173       68       69 1
    3174     3343     3344 1
    3175     2783     2785 1
    3176    10076    10077 1
    3177     7106     7107 1
    3178     4081     4082 1
    3179     2075     2076 1
    3180     1778     1779 1
    3181     2268     2269 1
    3182     1496     1497 1
    3183     8342     8343 1
    3184    11810    11812 1
    3185     6761     6763 1
    3186     8678     8680 1
    3187     6599     6601 1
    3188     5519     5521 1
    3189    11567    11569 1
    3190     9812     9814 1
    3191     8516     8518 1
    3192     8597     8599 1
    3193     6680     6682 1
    3194      849      850 1
    3195     1043     1044 1
    3196      792      793 1
    3197     2465     2464 1
    3198     2389     2390 1
    3199     4394     4395 1
    3200     2490     2491 1
    3201      366      367 1
    3202     2705     2706 1
    3203     4163     4164 1
    3204     1222     1223 1
    3205     4663     4662 1
    3206     1030     1031 1
    3207    10940    10942 1
    3208     8348     8350 1
    3209     7430     7432 1
    3210    10427    10429 1
    3211     6350     6352 1
    3212    10508    10510 1
    3213     8429     8431 1
    3214     9374     9376 1
    3215     5270     5272 1
    3216     3096     3097 1
    3217    11972    11974 1
    3218     3297     3296 1
    3219     7742     7744 1
    3220     9071     9073 1
    3221     3728     3729 1
    3222      439      444 1
    3223     5378     5380 1
    3224     5900     5902 1
    3225     7736     7738 1
    3226     1051     1052 1
    3227     7979     7981 1
    3228    11081    11082 1
    3229    10949    10951 1
    3230    10241    10242 1
    3231    10787    10789 1
    3232     4781     4783 1
    3233      696      697 1
    3234    11636    11637 1
    3235     9719     9720 1
    3236     6749     6750 1
    3237     8666     8667 1
    3238    12320    12321 1
    3239     1978     1979 1
    3240      815      816 1
    3241      449      450 1
    3242     4446     4447 1
    3243     4449     4450 1
    3244     2770     2772 1
    3245     7082     7083 1
    3246    10052    10053 1
    3247     9161     9162 1
    3248     8162     8163 1
    3249    11132    11133 1
    3250     4372     4371 1
    3251    12131    12132 1
    3252     8000     8001 1
    3253     7838     7839 1
    3254      559      558 1
    3255    10946    10948 1
    3256     6800     6801 1
    3257      689      690 1
    3258      256      257 1
    3259     1594     1595 1
    3260      165      166 1
    3261     4155     4141 1
    3262     1392     1393 1
    3263     3626     3627 1
    3264     3835     3836 1
    3265     2066     2052 1
    3266        3        4 1
    3267     6644     6646 1
    3268     8717     8719 1
    3269     7475     7477 1
    3270     7637     7639 1
    3271     9932     9934 1
    3272      994      995 1
    3273     7124     7126 1
    3274    10094    10096 1
    3275     1339     1340 1
    3276     8300     8302 1
    3277     3473     3474 1
    3278     2823     2826 1
    3279      684      686 1
    3280     5201     5203 1
    3281     7323     7322 1
    3282    11805    11804 1
    3283     3286     3287 1
    3284     3593     3595 1
    3285     3495     3496 1
    3286    12129    12128 1
    3287     3462     3463 1
    3288     6095     6096 1
    3289    10661    10662 1
    3290     2776     2779 1
    3291     2027     2028 1
    3292     2246     2247 1
    3293     4066     4067 1
    3294     2330     2331 1
    3295     3052     3053 1
    3296     2554     2556 1
    3297     6296     6298 1
    3298     5135     5137 1
    3299    11183    11185 1
    3300     4250     4236 1
    3301     1399     1400 1
    3302     4661     4662 1
    3303     4955     4956 1
    3304     7352     7354 1
    3305     9431     9433 1
    3306     9350     9352 1
    3307    10565    10567 1
    3308    10484    10486 1
    3309    10403    10405 1
    3310     7595     7597 1
    3311     3999     4000 1
    3312     3133     3134 1
    3313     7958     7959 1
    3314     2712     2713 1
    3315     9632     9634 1
    3316     1598     1597 1
    3317     3268     3269 1
    3318     6278     6280 1
    3319     7370     7371 1
    3320     7616     7618 1
    3321     4032     4033 1
    3322     2123     2109 1
    3323    12221    12223 1
    3324     6161     6162 1
    3325     5621     5622 1
    3326     9671     9672 1
    3327     5000     5001 1
    3328     9617     9618 1
    3329       97       98 1
    3330     6734     6736 1
    3331     2571     2572 1
    3332     2577     2578 1
    3333     3016     3017 1
    3334     6452     6454 1
    3335     3153     3154 1
    3336     9209     9211 1
    3337     7481     7483 1
    3338    12341    12343 1
    3339    11111    11112 1
    3340     6143     6144 1
    3341     5063     5064 1
    3342     7454     7456 1
    3343     4739     4740 1
    3344     7643     7645 1
    3345     8060     8061 1
    3346     7898     7899 1
    3347     4479     4480 1
    3348     4937     4939 1
    3349     4136     4122 1
    3350     2187     2188 1
    3351     1535     1536 1
    3352      133      132 1
    3353     3364     3366 1
    3354       58       59 1
    3355     1180     1179 1
    3356     3065     3064 1
    3357     4347     4332 1
    3358     4853     4854 1
    3359    10385    10387 1
    3360     5417     5419 1
    3361     6578     6580 1
    3362     4814     4815 1
    3363     7415     7417 1
    3364       51       52 1
    3365    11465    11467 1
    3366     8495     8497 1
    3367     7181     7182 1
    3368     2797     2798 1
    3369      144      145 1
    3370     4107     4108 1
    3371     4332     4333 1
    3372     4212     4211 1
    3373     6074     6075 1
    3374     4563     4564 1
    3375     6941     6942 1
    3376     8663     8665 1
    3377     3057     3058 1
    3378     3490     3491 1
    3379      291      292 1
    3380    10388    10389 1
    3381     4433     4434 1
    3382     8684     8685 1
    3383     6767     6768 1
    3384     5525     5526 1
    3385     8522     8523 1
    3386    11816    11817 1
    3387     6605     6606 1
    3388     8603     8604 1
    3389    11573    11574 1
    3390     6686     6687 1
    3391     9818     9819 1
    3392     2432     2433 1
    3393     2050     2051 1
    3394     3554     3555 1
    3395     1801     1802 1
    3396     2732     2733 1
    3397     8546     8548 1
    3398     4105     4106 1
    3399     2067     2068 1
    3400     3182     3184 1
    3401     2883     2884 1
    3402     3763     3764 1
    3403     1060     1039 1
    3404     3938     3940 1
    3405     2983     2984 1
    3406     6836     6837 1
    3407     5756     5757 1
    3408     5918     5919 1
    3409      587      588 1
    3410     6917     6918 1
    3411     8834     8835 1
    3412    11723    11724 1
    3413     9968     9969 1
    3414     2488     2487 1
    3415     1520     1522 1
    3416    11195    11197 1
    3417     6308     6310 1
    3418     4718     4720 1
    3419     1317     1316 1
    3420     1142     1141 1
    3421     4152     4153 1
    3422     1412     1415 1
    3423      653      654 1
    3424     4856     4857 1
    3425     1034     1035 1
    3426      862      861 1
    3427     2407     2408 1
    3428     1574     1575 1
    3429    11432    11434 1
    3430     8111     8113 1
    3431     1283     1284 1
    3432     2559     2560 1
    3433     1174     1175 1
    3434      538      539 1
    3435     3450     3451 1
    3436     1619     1620 1
    3437      747      748 1
    3438     2802     2803 1
    3439     3779     3780 1
    3440     9626     9628 1
    3441     4126     4127 1
    3442     4270     4271 1
    3443     3755     3756 1
    3444     8134     8132 1
    3445     6217     6215 1
    3446     1694     1695 1
    3447     7277     7279 1
    3448      883      884 1
    3449     2686     2685 1
    3450     5909     5910 1
    3451     9230     9231 1
    3452     8150     8151 1
    3453     5828     5829 1
    3454    10121    10122 1
    3455     6233     6234 1
    3456    11714    11715 1
    3457    10796    10797 1
    3458    11876    11877 1
    3459     3745     3746 1
    3460     1733     1734 1
    3461       99      100 1
    3462     1979     1980 1
    3463     8828     8829 1
    3464     5750     5751 1
    3465      832      833 1
    3466     1265     1266 1
    3467     2627     2628 1
    3468     3281     3282 1
    3469     4275     4276 1
    3470     4396     4395 1
    3471     4428     4429 1
    3472     4967     4969 1
    3473     4850     4852 1
    3474     3893     3894 1
    3475     4802     4804 1
    3476     3865     3866 1
    3477       44       45 1
    3478     9284     9286 1
    3479     7973     7975 1
    3480    11540    11542 1
    3481     2469     2470 1
    3482     3544     3545 1
    3483     3201     3204 1
    3484     5825     5827 1
    3485     8225     8227 1
    3486     4075     4076 1
    3487     8453     8454 1
    3488     1511     1510 1
    3489     5753     5755 1
    3490    12191    12193 1
    3491     2151     2152 1
    3492     1920     1921 1
    3493     2744     2745 1
    3494     2691     2692 1
    3495     3964     3967 1
    3496     5966     5968 1
    3497    11588    11589 1
    3498     3159     3160 1
    3499     5540     5541 1
    3500     4091     4090 1
    3501      344      345 1
    3502      559      560 1
    3503     3224     3225 1
    3504     2049     2034 1
    3505     4632     4617 1
    3506     7613     7615 1
    3507     3494     3495 1
    3508    11006    11007 1
    3509     1330     1331 1
    3510     4691     4692 1
    3511     1246     1247 1
    3512     2271     2272 1
    3513     1314     1315 1
    3514     2043     2044 1
    3515     1095     1096 1
    3516     2276     2277 1
    3517    11903    11904 1
    3518     3315     3320 1
    3519     3738     3739 1
    3520     3305     3306 1
    3521     2651     2652 1
    3522     3293     3294 1
    3523     2440     2441 1
    3524     3509     3510 1
    3525      794      795 1
    3526     3954     3955 1
    3527     8729     8730 1
    3528     4847     4849 1
    3529    12130    12128 1
    3530     7961     7962 1
    3531      831      832 1
    3532     1298     1300 1
    3533      607      606 1
    3534      818      819 1
    3535      272      274 1
    3536      628      607 1
    3537     4104     4105 1
    3538     2828     2833 1
    3539      854      855 1
    3540     1281     1282 1
    3541      645      646 1
    3542     7376     7378 1
    3543     2178     2179 1
    3544     7895     7897 1
    3545     4979     4981 1
    3546    10076    10078 1
    3547     7106     7108 1
    3548      900      902 1
    3549    10283    10285 1
    3550     3220     3221 1
    3551    10796    10798 1
    3552      315      316 1
    3553     8318     8320 1
    3554     4007     4006 1
    3555      385      390 1
    3556     1248     1253 1
    3557     2136     2137 1
    3558     2283     2284 1
    3559     1955     1956 1
    3560      771      772 1
    3561     4757     4759 1
    3562     4180     4181 1
    3563     2883     2888 1
    3564     4288     4274 1
    3565     1173     1174 1
    3566     4706     4708 1
    3567    11951    11952 1
    3568     2375     2376 1
    3569     4173     4174 1
    3570     3322     3323 1
    3571     4865     4866 1
    3572     4889     4890 1
    3573    10913    10914 1
    3574     9995     9996 1
    3575     4553     4552 1
    3576     8459     8460 1
    3577     6191     6192 1
    3578    11159    11160 1
    3579     6110     6111 1
    3580     5111     5112 1
    3581     8216     8217 1
    3582    11429    11430 1
    3583     5300     5301 1
    3584     8108     8109 1
    3585     2074     2075 1
    3586     9650     9651 1
    3587      638      639 1
    3588     3099     3104 1
    3589     4051     4052 1
    3590    11708    11709 1
    3591     2436     2437 1
    3592    11741    11743 1
    3593     6854     6856 1
    3594     9014     9016 1
    3595    11984    11986 1
    3596    10148    10150 1
    3597     9905     9907 1
    3598     8852     8854 1
    3599     8771     8773 1
    3600     9743     9745 1
    3601     5774     5776 1
    3602     2869     2868 1
    3603     2386     2387 1
    3604     1462     1459 1
    3605      453      454 1
    3606      674      675 1
    3607     3020     3022 1
    3608     3334     3333 1
    3609     3543     3542 1
    3610       42       43 1
    3611     4526     4527 1
    3612     4379     4380 1
    3613     2411     2412 1
    3614     9564     9563 1
    3615     9569     9570 1
    3616    11405    11406 1
    3617     6437     6438 1
    3618    11648    11649 1
    3619     6518     6519 1
    3620    11636    11638 1
    3621     5195     5196 1
    3622     9719     9721 1
    3623     1793     1794 1
    3624      304      305 1
    3625     8666     8668 1
    3626     6749     6751 1
    3627     2673     2672 1
    3628      252      254 1
    3629     9824     9826 1
    3630     6617     6619 1
    3631     3236     3237 1
    3632     7838     7840 1
    3633     9161     9163 1
    3634     7082     7084 1
    3635    10052    10054 1
    3636     8162     8164 1
    3637    11132    11134 1
    3638    12131    12133 1
    3639     8000     8002 1
    3640    10970    10972 1
    3641     4991     4993 1
    3642     3154     3156 1
    3643    10622    10624 1
    3644      228      223 1
    3645      399      398 1
    3646     2688     2689 1
    3647     9476     9478 1
    3648     2949     2950 1
    3649     8267     8268 1
    3650     3812     3813 1
    3651      148      149 1
    3652     2254     2255 1
    3653     2259     2260 1
    3654     1635     1636 1
    3655     9119     9120 1
    3656    10199    10200 1
    3657     1928     1929 1
    3658     7184     7185 1
    3659     1155     1156 1
    3660     1164     1165 1
    3661     3288     3289 1
    3662    11513    11514 1
    3663     6626     6627 1
    3664      250      229 1
    3665     4679     4681 1
    3666    10190    10192 1
    3667     2011     2012 1
    3668     1055     1056 1
    3669      619      620 1
    3670     1916     1917 1
    3671     1386     1388 1
    3672     1912     1911 1
    3673    12086    12088 1
    3674     7874     7876 1
    3675     3651     3652 1
    3676     7712     7714 1
    3677    10169    10171 1
    3678     5876     5878 1
    3679    10844    10846 1
    3680    10331    10333 1
    3681     7037     7039 1
    3682      702      701 1
    3683    11126    11127 1
    3684     7157     7158 1
    3685    12044    12045 1
    3686     8345     8346 1
    3687    10397    10398 1
    3688     9506     9507 1
    3689     6995     6996 1
    3690     7427     7428 1
    3691     5429     5430 1
    3692     8507     8508 1
    3693    10442    10443 1
    3694     9635     9637 1
    3695     1494     1496 1
    3696     6131     6133 1
    3697     4538     4539 1
    3698     1378     1379 1
    3699     5000     5002 1
    3700     6161     6163 1
    3701     5621     5623 1
    3702      412      413 1
    3703     9671     9673 1
    3704     9617     9619 1
    3705     5747     5749 1
    3706     3329     3330 1
    3707      489      490 1
    3708     8288     8290 1
    3709     2446     2448 1
    3710    11168    11169 1
    3711     8036     8037 1
    3712     6956     6957 1
    3713    11843    11844 1
    3714    11762    11763 1
    3715     9845     9846 1
    3716     5120     5121 1
    3717     7955     7956 1
    3718     6281     6282 1
    3719     6119     6120 1
    3720     4423     4408 1
    3721    11111    11113 1
    3722     5063     5065 1
    3723     4739     4741 1
    3724     6143     6145 1
    3725     8060     8062 1
    3726     7898     7900 1
    3727    10868    10870 1
    3728     4982     4984 1
    3729      114      119 1
    3730      838      837 1
    3731     3339     3340 1
    3732     3760     3761 1
    3733     4694     4696 1
    3734     8504     8505 1
    3735     7019     7020 1
    3736     5858     5859 1
    3737    12068    12069 1
    3738    11474    11475 1
    3739     2742     2743 1
    3740     5696     5697 1
    3741     7343     7344 1
    3742     4952     4953 1
    3743     6587     6588 1
    3744     8552     8554 1
    3745     7781     7782 1
    3746     5675     5676 1
    3747    10751    10752 1
    3748     2176     2177 1
    3749     9536     9537 1
    3750    10832    10833 1
    3751     7700     7701 1
    3752     4814     4816 1
    3753     4380     4381 1
    3754     9683     9684 1
    3755     2843     2844 1
    3756     2366     2365 1
    3757     5738     5739 1
    3758      896      897 1
    3759     4023     4024 1
    3760     3262     3264 1
    3761     7877     7879 1
    3762     4201     4202 1
    3763     4363     4364 1
    3764     7502     7503 1
    3765     7259     7260 1
    3766    12227    12228 1
    3767    12308    12309 1
    3768    10472    10473 1
    3769     7178     7179 1
    3770     9095     9096 1
    3771     1481     1482 1
    3772     1456     1457 1
    3773    10310    10311 1
    3774     7019     7021 1
    3775     8204     8205 1
    3776      838      839 1
    3777      184      185 1
    3778     5843     5844 1
    3779     5681     5682 1
    3780     7004     7005 1
    3781     9461     9462 1
    3782    10676    10677 1
    3783    12053    12054 1
    3784    11891    11892 1
    3785     7544     7545 1
    3786     7328     7329 1
    3787     3463     3464 1
    3788     3990     3991 1
    3789     6917     6919 1
    3790     6836     6838 1
    3791     8834     8836 1
    3792     5756     5758 1
    3793     5918     5920 1
    3794     3971     3972 1
    3795     3907     3908 1
    3796     4664     4665 1
    3797     4436     4437 1
    3798    11723    11725 1
    3799     2991     2992 1
    3800     6629     6630 1
    3801      134      135 1
    3802     5543     5544 1
    3803     4940     4941 1
    3804     8210     8211 1
    3805     3943     3944 1
    3806       71       72 1
    3807     9008     9009 1
    3808      319      320 1
    3809     2729     2731 1
    3810     4494     4495 1
    3811     7028     7030 1
    3812     4748     4750 1
    3813     8303     8304 1
    3814     2230     2231 1
    3815     2308     2309 1
    3816    10415    10416 1
    3817     5960     5961 1
    3818     4614     4615 1
    3819     2728     2729 1
    3820     3302     3303 1
    3821       83       84 1
    3822     7733     7735 1
    3823      561      562 1
    3824      782      783 1
    3825    11783    11785 1
    3826     8813     8815 1
    3827     9866     9868 1
    3828     4144     4145 1
    3829     5573     5575 1
    3830     6896     6898 1
    3831     9565     9563 1
    3832    10868    10869 1
    3833     3908     3913 1
    3834     2374     2375 1
    3835     4004     4005 1
    3836     6950     6951 1
    3837     3015     3014 1
    3838     6702     6701 1
    3839     2138     2139 1
    3840     2285     2286 1
    3841     2025     2026 1
    3842     1950     1951 1
    3843     1866     1867 1
    3844     4651     4652 1
    3845     5540     5542 1
    3846    11588    11590 1
    3847     9959     9961 1
    3848    11282    11284 1
    3849     2722     2723 1
    3850     4133     4134 1
    3851     6071     6073 1
    3852     2237     2223 1
    3853    11018    11020 1
    3854     2466     2467 1
    3855     2687     2688 1
    3856     3120     3121 1
    3857    11501    11503 1
    3858     3579     3582 1
    3859       15       16 1
    3860     1087     1088 1
    3861     1148     1149 1
    3862     4460     4461 1
    3863     1548     1549 1
    3864     3601     3602 1
    3865     1126     1127 1
    3866      693      694 1
    3867     2042     2043 1
    3868     5939     5940 1
    3869     7937     7938 1
    3870     4310     4311 1
    3871     6101     6102 1
    3872     3477     3478 1
    3873    10907    10908 1
    3874     2202     2203 1
    3875     5315     5317 1
    3876    11558    11559 1
    3877     2272     2273 1
    3878     4299     4300 1
    3879     1431     1432 1
    3880      414      415 1
    3881     1506     1507 1
    3882     1768     1769 1
    3883    11045    11046 1
    3884     2637     2638 1
    3885     1367     1368 1
    3886     2625     2626 1
    3887      943      944 1
    3888     8351     8353 1
    3889     4650     4651 1
    3890      813      814 1
    3891     4215     4216 1
    3892      323      324 1
    3893      532      533 1
    3894      136      137 1
    3895     1440     1442 1
    3896     5270     5271 1
    3897     5717     5719 1
    3898      915      916 1
    3899     3532     3534 1
    3900    10919    10921 1
    3901     6032     6034 1
    3902     4448     4449 1
    3903     4301     4302 1
    3904     3056     3057 1
    3905     3501     3502 1
    3906     1303     1308 1
    3907     2726     2727 1
    3908     9785     9786 1
    3909     8732     8733 1
    3910     2219     2220 1
    3911     2171     2172 1
    3912     5654     5655 1
    3913      149      150 1
    3914     7814     7815 1
    3915     9623     9624 1
    3916     2255     2256 1
    3917     3645     3646 1
    3918     5339     5340 1
    3919    11819    11820 1
    3920     9995     9997 1
    3921    10913    10915 1
    3922     2575     2576 1
    3923     3659     3660 1
    3924     4603     4604 1
    3925    11078    11080 1
    3926    11429    11431 1
    3927     5111     5113 1
    3928     6110     6112 1
    3929    11159    11161 1
    3930     6191     6193 1
    3931     5030     5032 1
    3932      196      175 1
    3933     8216     8218 1
    3934     8108     8110 1
    3935     2553     2556 1
    3936     2918     2919 1
    3937     9470     9471 1
    3938     4970     4971 1
    3939     2819     2820 1
    3940     3900     3901 1
    3941     3528     3529 1
    3942     5630     5631 1
    3943     1739     1740 1
    3944     2679     2680 1
    3945     2515     2516 1
    3946     3112     3113 1
    3947     3118     3119 1
    3948     4487     4488 1
    3949     3169     3170 1
    3950       67       68 1
    3951     2709     2708 1
    3952     6272     6274 1
    3953     5300     5302 1
    3954     3228     3229 1
    3955     2789     2790 1
    3956    11657    11658 1
    3957     3040     3042 1
    3958      423      422 1
    3959     4631     4632 1
    3960    10355    10356 1
    3961     9032     9033 1
    3962    10517    10518 1
    3963    10436    10437 1
    3964    12083    12084 1
    3965     5873     5874 1
    3966    10328    10329 1
    3967    10166    10167 1
    3968     7385     7386 1
    3969     1111     1112 1
    3970     2190     2191 1
    3971     5345     5346 1
    3972     3530     3535 1
    3973     2655     2656 1
    3974     3518     3519 1
    3975     4447     4448 1
    3976     2864     2865 1
    3977    12143    12144 1
    3978     7094     7095 1
    3979    10064    10065 1
    3980     9713     9714 1
    3981     9173     9174 1
    3982     2748     2749 1
    3983     8660     8661 1
    3984    11630    11631 1
    3985     6743     6744 1
    3986    11968    11966 1
    3987      570      571 1
    3988      323      322 1
    3989      532      531 1
    3990     3676     3675 1
    3991       69       70 1
    3992     3051     3052 1
    3993     7199     7201 1
    3994    12329    12331 1
    3995     2788     2789 1
    3996     7442     7444 1
    3997     7280     7282 1
    3998     3442     3443 1
    3999     9197     9199 1
    4000     9278     9280 1
    4001    12248    12250 1
    4002     5888     5889 1
    4003    10721    10722 1
    4004    10181    10182 1
    4005     5996     5997 1
    4006    12098    12099 1
    4007     4569     4570 1
    4008     7589     7590 1
    4009    10559    10560 1
    4010     4335     4336 1
    4011     3982     3983 1
    4012     4188     4189 1
    4013      421      422 1
    4014     4209     4210 1
    4015      661      662 1
    4016     9641     9643 1
    4017     1375     1376 1
    4018     2480     2482 1
    4019     6386     6387 1
    4020     4120     4121 1
    4021     4348     4349 1
    4022     3447     3448 1
    4023     3917     3918 1
    4024     8267     8269 1
    4025       62       63 1
    4026    11789    11790 1
    4027     7739     7740 1
    4028     9872     9873 1
    4029     8819     8820 1
    4030     5579     5580 1
    4031     5741     5742 1
    4032     6902     6903 1
    4033     3204     3205 1
    4034     5627     5629 1
    4035     3653     3652 1
    4036    10301    10302 1
    4037     2947     2948 1
    4038     2295     2296 1
    4039     1742     1743 1
    4040     4573     4559 1
    4041     4473     4474 1
    4042     3599     3600 1
    4043    12170    12172 1
    4044     2303     2302 1
    4045     3930     3931 1
    4046      953      954 1
    4047     4958     4959 1
    4048     3207     3208 1
    4049     4443     4444 1
    4050     4059     4060 1
    4051      529      530 1
    4052     2546     2547 1
    4053     3947     3946 1
    4054     4129     4130 1
    4055      522      524 1
    4056     1267     1268 1
    4057      192      193 1
    4058     3713     3712 1
    4059     8636     8637 1
    4060     6557     6558 1
    4061     5963     5964 1
    4062     5558     5559 1
    4063    11363    11364 1
    4064     8393     8394 1
    4065     5396     5397 1
    4066    11687    11688 1
    4067     9770     9771 1
    4068     6638     6639 1
    4069      354      355 1
    4070      284      285 1
    4071     4148     4149 1
    4072     1988     1989 1
    4073     1274     1275 1
    4074     8504     8506 1
    4075    12068    12070 1
    4076     5426     5428 1
    4077     5858     5860 1
    4078     5696     5698 1
    4079     7343     7345 1
    4080    11474    11476 1
    4081     6587     6589 1
    4082     5264     5266 1
    4083    11906    11908 1
    4084     6974     6975 1
    4085      825      827 1
    4086     7781     7783 1
    4087     5675     5677 1
    4088    10751    10753 1
    4089     9536     9538 1
    4090    10832    10834 1
    4091     7700     7702 1
    4092     9785     9787 1
    4093     6824     6826 1
    4094     5501     5503 1
    4095      121      122 1
    4096     4916     4918 1
    4097    12008    12009 1
    4098      278      281 1
    4099    11612    11613 1
    4100     4651     4636 1
    4101     2644     2645 1
    4102     2586     2587 1
    4103     9383     9385 1
    4104     2301     2302 1
    4105     4988     4990 1
    4106     1845     1846 1
    4107     7904     7906 1
    4108      714      715 1
    4109     8765     8766 1
    4110      767      762 1
    4111     2114     2115 1
    4112     4167     4168 1
    4113     2662     2664 1
    4114     2968     2969 1
    4115     3538     3539 1
    4116     2974     2975 1
    4117     4922     4924 1
    4118     1092     1093 1
    4119     8309     8310 1
    4120     2159     2160 1
    4121     2277     2262 1
    4122     2072     2073 1
    4123     1334     1335 1
    4124     4931     4933 1
    4125    12137    12138 1
    4126    10058    10059 1
    4127     7844     7845 1
    4128     7088     7089 1
    4129     8168     8169 1
    4130    11138    11139 1
    4131     2480     2481 1
    4132     9167     9168 1
    4133    10976    10977 1
    4134       18       19 1
    4135     8093     8094 1
    4136     1765     1766 1
    4137     2540     2541 1
    4138     3963     3968 1
    4139     2727     2728 1
    4140      511      512 1
    4141     7292     7294 1
    4142     4471     4472 1
    4143      640      641 1
    4144     1010     1008 1
    4145    10985    10987 1
    4146     1011     1012 1
    4147     3221     3222 1
    4148    10064    10066 1
    4149      170      171 1
    4150      197      198 1
    4151      742      743 1
    4152     1187     1188 1
    4153     5240     5242 1
    4154    11825    11827 1
    4155     4476     4477 1
    4156     1980     1981 1
    4157     1908     1909 1
    4158     6023     6025 1
    4159     3910     3911 1
    4160      709      710 1
    4161     3748     3751 1
    4162     7901     7902 1
    4163     3830     3832 1
    4164      478      479 1
    4165    10475    10476 1
    4166     9098     9099 1
    4167     7505     7506 1
    4168    10313    10314 1
    4169    12230    12231 1
    4170     8990     8991 1
    4171     4081     4066 1
    4172    10043    10044 1
    4173      440      441 1
    4174     3809     3810 1
    4175     1909     1910 1
    4176     2056     2057 1
    4177     2449     2448 1
    4178      584      585 1
    4179      925      926 1
    4180     1807     1808 1
    4181     7487     7488 1
    4182     6164     6165 1
    4183    10457    10458 1
    4184    10295    10296 1
    4185     5165     5166 1
    4186    11375    11376 1
    4187     9080     9081 1
    4188     7163     7164 1
    4189    11213    11214 1
    4190     5003     5004 1
    4191     9581     9582 1
    4192     4404     4389 1
    4193     3841     3842 1
    4194      320      321 1
    4195     3623     3624 1
    4196      127      128 1
    4197     2763     2764 1
    4198     9446     9448 1
    4199    10499    10501 1
    4200     3564     3565 1
    4201       95       96 1
    4202     6797     6799 1
    4203     5609     5611 1
    4204     7880     7882 1
    4205     7367     7369 1
    4206    10850    10852 1
    4207     3358     3359 1
    4208     1235     1236 1
    4209     1208     1209 1
    4210     6776     6777 1
    4211     5291     5292 1
    4212     2421     2422 1
    4213    10838    10839 1
    4214     7868     7869 1
    4215     7706     7707 1
    4216      152      153 1
    4217    11000    11001 1
    4218     5939     5941 1
    4219     7937     7939 1
    4220    10907    10909 1
    4221     6101     6103 1
    4222     5324     5325 1
    4223     3968     3969 1
    4224     1396     1397 1
    4225     7217     7219 1
    4226     1402     1403 1
    4227     5732     5734 1
    4228     3787     3788 1
    4229     3055     3053 1
    4230     4841     4842 1
    4231     4721     4722 1
    4232     2232     2233 1
    4233     9254     9256 1
    4234      824      825 1
    4235     6791     6792 1
    4236     9986     9987 1
    4237     8933     8934 1
    4238     3215     3217 1
    4239      113      114 1
    4240     9131     9132 1
    4241     4491     4492 1
    4242     3385     3386 1
    4243    10103    10104 1
    4244     3173     3174 1
    4245     2031     2032 1
    4246     3149     3150 1
    4247     9665     9667 1
    4248      734      735 1
    4249    11771    11773 1
    4250    10289    10291 1
    4251     7724     7726 1
    4252     8156     8158 1
    4253     6239     6241 1
    4254     7319     7321 1
    4255    11288    11290 1
    4256     5807     5809 1
    4257     7886     7888 1
    4258     2776     2778 1
    4259      763      768 1
    4260     2398     2399 1
    4261      332      333 1
    4262     3294     3295 1
    4263     1012     1013 1
    4264     2986     2988 1
    4265     4760     4762 1
    4266      338      337 1
    4267     2702     2703 1
    4268     3780     3781 1
    4269     7064     7066 1
    4270    11861    11862 1
    4271    10478    10479 1
    4272     9101     9102 1
    4273     7778     7779 1
    4274    12233    12234 1
    4275    12314    12315 1
    4276    10829    10830 1
    4277     7535     7536 1
    4278    10316    10317 1
    4279     7508     7509 1
    4280     7265     7266 1
    4281     2465     2466 1
    4282     1714     1715 1
    4283     2839     2840 1
    4284     4590     4591 1
    4285      449      447 1
    4286     6197     6198 1
    4287    11084    11085 1
    4288     1678     1679 1
    4289      122      123 1
    4290     4018     4019 1
    4291     4045     4046 1
    4292     1331     1332 1
    4293     2908     2909 1
    4294      116      119 1
    4295     3457     3456 1
    4296     2292     2293 1
    4297     3774     3753 1
    4298     3510     3511 1
    4299    10355    10357 1
    4300    10166    10168 1
    4301     1792     1791 1
    4302    10517    10519 1
    4303    10436    10438 1
    4304     9032     9034 1
    4305    12083    12085 1
    4306     5873     5875 1
    4307     9302     9304 1
    4308     2162     2163 1
    4309    12305    12307 1
    4310     8903     8905 1
    4311     5009     5010 1
    4312    12143    12145 1
    4313     7094     7096 1
    4314     4317     4318 1
    4315    12338    12339 1
    4316    10826    10827 1
    4317     7208     7209 1
    4318     9206     9207 1
    4319     7775     7776 1
    4320     4298     4297 1
    4321     4529     4528 1
    4322    10664    10665 1
    4323     7532     7533 1
    4324     3905     3906 1
    4325     2547     2548 1
    4326     1203     1204 1
    4327    10925    10927 1
    4328     6038     6040 1
    4329     1894     1895 1
    4330     2191     2192 1
    4331     4271     4256 1
    4332     2233     2234 1
    4333     3658     3659 1
    4334     1996     1997 1
    4335      907      908 1
    4336     5714     5715 1
    4337     3741     3744 1
    4338     4934     4935 1
    4339     2858     2860 1
    4340     6800     6802 1
    4341     1682     1685 1
    4342    11975    11977 1
    4343     9788     9790 1
    4344    10604    10606 1
    4345      306      308 1
    4346     6541     6539 1
    4347     7000     6998 1
    4348      909      910 1
    4349     5315     5316 1
    4350    10364    10365 1
    4351     9608     9609 1
    4352    12281    12282 1
    4353     8231     8232 1
    4354     9311     9312 1
    4355    10526    10527 1
    4356     7394     7395 1
    4357     6014     6016 1
    4358     3882     3861 1
    4359     2814     2815 1
    4360    11498    11499 1
    4361     5288     5289 1
    4362      396      397 1
    4363      611      612 1
    4364      445      446 1
    4365     4131     4132 1
    4366     9407     9408 1
    4367     8408     8409 1
    4368     6653     6654 1
    4369     6329     6330 1
    4370     1917     1918 1
    4371     5330     5331 1
    4372    10622    10623 1
    4373     4278     4279 1
    4374     9245     9246 1
    4375     6491     6492 1
    4376      285      287 1
    4377     2343     2348 1
    4378     2371     2372 1
    4379    10661    10663 1
    4380     2611     2612 1
    4381      524      525 1
    4382     3771     3772 1
    4383     3759     3760 1
    4384     3550     3551 1
    4385     3428     3429 1
    4386    11495    11497 1
    4387      768      769 1
    4388     3316     3317 1
    4389     2049     2050 1
    4390     1821     1822 1
    4391     4892     4894 1
    4392     2717     2718 1
    4393     4940     4942 1
    4394     8390     8391 1
    4395     1412     1414 1
    4396     1250     1251 1
    4397    10883    10884 1
    4398     1878     1863 1
    4399     6929     6930 1
    4400      746      747 1
    4401     2906     2907 1
    4402     4320     4321 1
    4403     4086     4087 1
    4404     3236     3238 1
    4405     5783     5784 1
    4406    11264    11265 1
    4407     6944     6945 1
    4408     2101     2102 1
    4409     1358     1360 1
    4410     9749     9751 1
    4411     4608     4609 1
    4412     2080     2081 1
    4413     9896     9897 1
    4414    11009    11010 1
    4415     7802     7804 1
    4416     8492     8493 1
    4417     8330     8331 1
    4418    11462    11463 1
    4419     3182     3183 1
    4420     5252     5253 1
    4421     6575     6576 1
    4422    10922    10923 1
    4423     6035     6036 1
    4424      846      847 1
    4425     3314     3319 1
    4426     7661     7662 1
    4427     3729     3730 1
    4428     2492     2493 1
    4429     8123     8124 1
    4430    11951    11953 1
    4431     3792     3793 1
    4432     9402     9401 1
    4433     2811     2812 1
    4434     3459     3460 1
    4435       19       20 1
    4436     2989     2990 1
    4437     2207     2208 1
    4438     1196     1197 1
    4439      575      576 1
    4440     8597     8598 1
    4441     4754     4755 1
    4442     1679     1680 1
    4443    12257    12258 1
    4444     8774     8776 1
    4445     2633     2634 1
    4446     3269     3270 1
    4447     3861     3860 1
    4448     3736     3735 1
    4449     2349     2350 1
    4450    11879    11881 1
    4451     8630     8631 1
    4452     3295     3296 1
    4453    10058    10060 1
    4454    11138    11140 1
    4455     7088     7090 1
    4456    12137    12139 1
    4457     8417     8419 1
    4458    10976    10978 1
    4459     9167     9169 1
    4460     7844     7846 1
    4461      327      328 1
    4462     8168     8170 1
    4463     4037     4038 1
    4464       26       27 1
    4465      138      139 1
    4466      755      756 1
    4467     6209     6210 1
    4468     8045     8046 1
    4469     6128     6129 1
    4470     8126     8127 1
    4471     5129     5130 1
    4472     5048     5049 1
    4473    11096    11097 1
    4474    11177    11178 1
    4475     7964     7965 1
    4476     6290     6291 1
    4477     9269     9270 1
    4478     1825     1826 1
    4479      885      886 1
    4480      452      453 1
    4481     2366     2367 1
    4482     6212     6213 1
    4483    11099    11100 1
    4484      780      781 1
    4485     4296     4297 1
    4486     5408     5409 1
    4487    11456    11457 1
    4488     8486     8487 1
    4489     5246     5247 1
    4490     6569     6570 1
    4491    10916    10917 1
    4492     6029     6030 1
    4493     8324     8325 1
    4494     6815     6817 1
    4495      738      739 1
    4496     5159     5160 1
    4497     3718     3719 1
    4498     1461     1462 1
    4499     3193     3194 1
    4500     2368     2369 1
    4501     3839     3840 1
    4502     4709     4711 1
    4503      770      771 1
    4504    10790    10791 1
    4505     3953     3954 1
    4506    11342    11344 1
    4507     8096     8098 1
    4508     8258     8260 1
    4509    11066    11068 1
    4510     6017     6019 1
    4511    11927    11929 1
    4512    11147    11149 1
    4513     8177     8179 1
    4514        8       10 1
    4515     7853     7855 1
    4516     8015     8017 1
    4517     1121     1122 1
    4518     1133     1134 1
    4519      677      678 1
    4520      892      893 1
    4521     3138     3139 1
    4522     3568     3569 1
    4523     5075     5076 1
    4524      563      564 1
    4525     1217     1218 1
    4526     3928     3929 1
    4527     3029     3030 1
    4528     3683     3684 1
    4529     2213     2214 1
    4530     6731     6733 1
    4531     9353     9355 1
    4532    10043    10045 1
    4533     7181     7183 1
    4534     9098     9100 1
    4535     7505     7507 1
    4536    12230    12232 1
    4537     8990     8992 1
    4538     7073     7075 1
    4539    10313    10315 1
    4540    11453    11454 1
    4541    11960    11962 1
    4542     8525     8526 1
    4543    11954    11955 1
    4544     6893     6895 1
    4545     4907     4908 1
    4546     7487     7489 1
    4547    10457    10459 1
    4548     5165     5167 1
    4549     9080     9082 1
    4550    11375    11377 1
    4551     6164     6166 1
    4552     3484     3485 1
    4553    11213    11215 1
    4554     5003     5005 1
    4555     7163     7165 1
    4556     2921     2922 1
    4557     3130     3131 1
    4558     2488     2489 1
    4559     3812     3811 1
    4560     7994     7996 1
    4561     4404     4405 1
    4562     4017     4022 1
    4563     4028     4029 1
    4564     2515     2513 1
    4565     5267     5268 1
    4566     8912     8913 1
    4567     1439     1440 1
    4568     3370     3372 1
    4569      438      443 1
    4570     1086     1091 1
    4571     3166     3167 1
    4572     4113     4112 1
    4573     3104     3105 1
    4574     8459     8461 1
    4575     1764     1765 1
    4576     2798     2799 1
    4577     9578     9579 1
    4578     8102     8104 1
    4579    11072    11074 1
    4580     8264     8266 1
    4581     6413     6414 1
    4582    12299    12300 1
    4583     9329     9330 1
    4584    11153    11155 1
    4585     7859     7861 1
    4586     6251     6252 1
    4587    11300    11301 1
    4588     7250     7251 1
    4589     5090     5091 1
    4590     4640     4641 1
    4591     4109     4110 1
    4592     1884     1885 1
    4593     4484     4485 1
    4594     1968     1969 1
    4595     2193     2194 1
    4596    10358    10360 1
    4597     2649     2650 1
    4598      346      347 1
    4599     3788     3789 1
    4600    10136    10137 1
    4601    10793    10794 1
    4602     5933     5934 1
    4603     7985     7986 1
    4604     5906     5907 1
    4605    10901    10902 1
    4606     3667     3668 1
    4607     7742     7743 1
    4608     7931     7932 1
    4609     9266     9267 1
    4610     1563     1564 1
    4611     1118     1119 1
    4612     1064     1065 1
    4613    11903    11905 1
    4614     9062     9064 1
    4615    10115    10117 1
    4616     9224     9226 1
    4617     7118     7120 1
    4618     6812     6813 1
    4619     1196     1199 1
    4620     8711     8713 1
    4621     7307     7309 1
    4622    10277    10279 1
    4623     9926     9928 1
    4624    11699    11700 1
    4625     5591     5592 1
    4626     6914     6915 1
    4627     7751     7752 1
    4628    11801    11802 1
    4629     5234     5235 1
    4630     9884     9885 1
    4631      764      765 1
    4632     8831     8832 1
    4633     5753     5754 1
    4634     8858     8859 1
    4635     7961     7963 1
    4636    11108    11110 1
    4637     3672     3673 1
    4638     1593     1594 1
    4639     1166     1167 1
    4640     9131     9133 1
    4641    10103    10105 1
    4642     4630     4616 1
    4643      580      581 1
    4644     6392     6394 1
    4645      938      937 1
    4646     1783     1768 1
    4647     3513     3514 1
    4648      654      659 1
    4649     6581     6583 1
    4650     3647     3648 1
    4651     3165     3166 1
    4652     4345     4331 1
    4653     3290     3292 1
    4654     2668     2670 1
    4655     3720     3721 1
    4656      891      892 1
    4657     9293     9294 1
    4658    12263    12264 1
    4659     4157     4142 1
    4660      154      155 1
    4661      483      482 1
    4662      986      987 1
    4663      413      414 1
    4664     1411     1416 1
    4665     1626     1631 1
    4666     1515     1516 1
    4667     3414     3415 1
    4668     2969     2970 1
    4669     4050     4051 1
    4670     2860     2861 1
    4671     1660     1661 1
    4672     4354     4355 1
    4673     4663     4664 1
    4674     2339     2340 1
    4675     3274     3273 1
    4676     2802     2781 1
    4677     3668     3670 1
    4678     2476     2475 1
    4679     6590     6592 1
    4680     6182     6183 1
    4681      999     1000 1
    4682     4607     4608 1
    4683    11144    11146 1
    4684    11643    11642 1
    4685     1876     1862 1
    4686      655      660 1
    4687     2006     2007 1
    4688     3708     3709 1
    4689     8567     8569 1
    4690    12338    12340 1
    4691    10826    10828 1
    4692    10745    10747 1
    4693     9287     9289 1
    4694     7208     7210 1
    4695     7532     7534 1
    4696    10664    10666 1
    4697     2812     2813 1
    4698     7775     7777 1
    4699     9206     9208 1
    4700     1581     1583 1
    4701     3747     3748 1
    4702      984      985 1
    4703      745      746 1
    4704    11024    11026 1
    4705     8570     8572 1
    4706    10250    10252 1
    4707     2182     2167 1
    4708     3977     3978 1
    4709      791      792 1
    4710     3086     3087 1
    4711     1138     1139 1
    4712      593      592 1
    4713     3666     3667 1
    4714     2310     2311 1
    4715    11048    11049 1
    4716     9158     9159 1
    4717     8159     8160 1
    4718    12185    12187 1
    4719     6809     6811 1
    4720     4305     4306 1
    4721       39       40 1
    4722     9005     9006 1
    4723     5765     5766 1
    4724     1337     1338 1
    4725    10583    10585 1
    4726     3053     3054 1
    4727     1527     1528 1
    4728     1628     1629 1
    4729     1018     1019 1
    4730     2882     2887 1
    4731     1462     1460 1
    4732     3082     3083 1
    4733     2873     2874 1
    4734     4225     4226 1
    4735     3452     3454 1
    4736     1264     1265 1
    4737     1280     1278 1
    4738     8729     8731 1
    4739     4290     4291 1
    4740     4518     4519 1
    4741     4169     4170 1
    4742      808      809 1
    4743     4742     4743 1
    4744    11319    11318 1
    4745    11873    11874 1
    4746     5285     5286 1
    4747    10865    10867 1
    4748    11945    11947 1
    4749     5783     5785 1
    4750    11264    11266 1
    4751     3653     3654 1
    4752     6944     6946 1
    4753     8117     8119 1
    4754     1192     1191 1
    4755      414      416 1
    4756     6830     6832 1
    4757    11717    11719 1
    4758     8558     8559 1
    4759     2161     2147 1
    4760     8330     8332 1
    4761     8492     8494 1
    4762     5252     5254 1
    4763    11462    11464 1
    4764    10922    10924 1
    4765     6575     6577 1
    4766     6035     6037 1
    4767     5414     5416 1
    4768     3389     3390 1
    4769     1651     1652 1
    4770     1612     1613 1
    4771      775      776 1
    4772     1817     1818 1
    4773     4092     4093 1
    4774    11090    11092 1
    4775     1903     1904 1
    4776     1987     1988 1
    4777     9722     9723 1
    4778     5702     5703 1
    4779     1219     1220 1
    4780     2110     2111 1
    4781     5921     5922 1
    4782     7919     7920 1
    4783    10889    10890 1
    4784     6083     6084 1
    4785       49       50 1
    4786     3093     3096 1
    4787     1074     1075 1
    4788     1033     1034 1
    4789     3421     3422 1
    4790      666      667 1
    4791      451      452 1
    4792     1454     1455 1
    4793       86       87 1
    4794     4393     4394 1
    4795     9227     9229 1
    4796     6959     6961 1
    4797     1052     1053 1
    4798      554      555 1
    4799     1238     1239 1
    4800     4601     4602 1
    4801     4154     4155 1
    4802     3925     3926 1
    4803     2602     2603 1
    4804     9488     9489 1
    4805     2141     2142 1
    4806     1637     1635 1
    4807      285      286 1
    4808     2168     2169 1
    4809     2021     2022 1
    4810     6209     6211 1
    4811    11096    11098 1
    4812     4516     4515 1
    4813     8045     8047 1
    4814     8126     8128 1
    4815     5129     5131 1
    4816     7964     7966 1
    4817     5048     5050 1
    4818    11177    11179 1
    4819     6290     6292 1
    4820     1677     1678 1
    4821     8204     8206 1
    4822     4208     4209 1
    4823     2836     2837 1
    4824     5408     5410 1
    4825    11456    11458 1
    4826     8486     8488 1
    4827     5246     5248 1
    4828     6569     6571 1
    4829    10916    10918 1
    4830     8324     8326 1
    4831     6029     6031 1
    4832    11042    11044 1
    4833    10799    10801 1
    4834     3153     3158 1
    4835    11720    11722 1
    4836     5510     5512 1
    4837     6833     6835 1
    4838     2506     2508 1
    4839     1699     1700 1
    4840     3243     3244 1
    4841     3028     3029 1
    4842     1451     1450 1
    4843     2273     2274 1
    4844      231      233 1
    4845    11345    11346 1
    4846     8375     8376 1
    4847    11507    11508 1
    4848     1963     1964 1
    4849      350      349 1
    4850     8924     8925 1
    4851     2153     2154 1
    4852      869      870 1
    4853     3407     3406 1
    4854    10937    10939 1
    4855     5969     5971 1
    4856     6050     6052 1
    4857     1526     1527 1
    4858     2087     2072 1
    4859      198      199 1
    4860     3523     3524 1
    4861     1159     1160 1
    4862     3944     3945 1
    4863    12212    12214 1
    4864    10487    10489 1
    4865    10406    10408 1
    4866     9434     9436 1
    4867    12224    12225 1
    4868     8984     8985 1
    4869     3640     3641 1
    4870     6770     6771 1
    4871     6662     6663 1
    4872     7499     7500 1
    4873     8687     8688 1
    4874    10469    10470 1
    4875     9092     9093 1
    4876     6338     6339 1
    4877    12107    12109 1
    4878     3006     3007 1
    4879     9332     9334 1
    4880    10466    10468 1
    4881     9089     9091 1
    4882    12302    12304 1
    4883     7496     7498 1
    4884     5570     5571 1
    4885     7172     7174 1
    4886     7253     7255 1
    4887    10304    10306 1
    4888    10505    10506 1
    4889     8723     8724 1
    4890     9452     9453 1
    4891     9938     9939 1
    4892     7130     7131 1
    4893    10100    10101 1
    4894     7373     7374 1
    4895     8939     8940 1
    4896     1990     1976 1
    4897     3698     3699 1
    4898     1157     1158 1
    4899     2896     2897 1
    4900    10970    10971 1
    4901     9791     9792 1
    4902     5660     5661 1
    4903     8576     8577 1
    4904     8738     8739 1
    4905    11546    11547 1
    4906     1840     1841 1
    4907     9629     9630 1
    4908     7658     7659 1
    4909     7820     7821 1
    4910     9329     9331 1
    4911     5090     5092 1
    4912     6413     6415 1
    4913     6251     6253 1
    4914    12299    12301 1
    4915     7250     7252 1
    4916    11300    11302 1
    4917     2183     2184 1
    4918      439      440 1
    4919      500      501 1
    4920     8627     8629 1
    4921    10901    10903 1
    4922     5933     5935 1
    4923     4089     4090 1
    4924     8639     8640 1
    4925     6047     6048 1
    4926     8396     8397 1
    4927     2521     2522 1
    4928     7985     7987 1
    4929     5399     5400 1
    4930    11609    11610 1
    4931    11690    11691 1
    4932    11528    11529 1
    4933     6560     6561 1
    4934     7040     7042 1
    4935     4061     4062 1
    4936     1746     1747 1
    4937     4649     4635 1
    4938     2122     2123 1
    4939     1925     1924 1
    4940     1438     1417 1
    4941    10289    10290 1
    4942     2410     2411 1
    4943     9596     9598 1
    4944     4063     4064 1
    4945     2543     2544 1
    4946     2976     2977 1
    4947     3191     3192 1
    4948     3078     3079 1
    4949     4442     4443 1
    4950     1639     1640 1
    4951      564      565 1
    4952      866      868 1
    4953     6890     6891 1
    4954    10847    10849 1
    4955     6068     6070 1
    4956     4285     4286 1
    4957     2395     2396 1
    4958     1489     1490 1
    4959    11320    11318 1
    4960     1270     1271 1
    4961     3773     3772 1
    4962     5531     5532 1
    4963    11324    11325 1
    4964     8354     8355 1
    4965     8192     8193 1
    4966     8273     8274 1
    4967     4712     4714 1
    4968     6356     6357 1
    4969     8435     8436 1
    4970    11486    11487 1
    4971     5357     5359 1
    4972     5276     5277 1
    4973    11957    11958 1
    4974    12263    12265 1
    4975     2787     2788 1
    4976     9293     9295 1
    4977     3823     3822 1
    4978     4583     4584 1
    4979     6803     6804 1
    4980    10478    10480 1
    4981     3105     3106 1
    4982    11504    11505 1
    4983     9776     9777 1
    4984    10328    10330 1
    4985     6167     6168 1
    4986     4467     4468 1
    4987     3259     3258 1
    4988     3603     3604 1
    4989     4488     4489 1
    4990     3379     3380 1
    4991     3170     3171 1
    4992     2167     2168 1
    4993      642      641 1
    4994     1870     1871 1
    4995     9020     9022 1
    4996     3313     3314 1
    4997     4377     4378 1
    4998     2220     2221 1
    4999     7703     7704 1
    5000     3497     3498 1
    5001     7757     7759 1
    5002      205      206 1
    5003     2274     2275 1
    5004     7823     7824 1
    5005     2856     2835 1
    5006       74       75 1
    5007     9164     9166 1
    5008     7625     7627 1
    5009     7463     7465 1
    5010     7085     7087 1
    5011    10055    10057 1
    5012    12134    12136 1
    5013     3517     3516 1
    5014    11537    11538 1
    5015     2145     2146 1
    5016     3344     3346 1
    5017     1049     1050 1
    5018     1703     1704 1
    5019      899      898 1
    5020     4622     4623 1
    5021     4241     4242 1
    5022     1665     1666 1
    5023     6788     6789 1
    5024    10943    10944 1
    5025     9078     9077 1
    5026     3250     3251 1
    5027     2596     2597 1
    5028     3469     3470 1
    5029      326      328 1
    5030     8870     8871 1
    5031    11048    11050 1
    5032     9158     9160 1
    5033     8159     8161 1
    5034     2350     2351 1
    5035     9074     9076 1
    5036     3983     3984 1
    5037    11600    11601 1
    5038     3161     3163 1
    5039     3289     3290 1
    5040     2073     2074 1
    5041     3595     3596 1
    5042     1567     1570 1
    5043      528      529 1
    5044     1553     1554 1
    5045      266      267 1
    5046     1466     1469 1
    5047       28       27 1
    5048     2293     2294 1
    5049     2209     2210 1
    5050      888      889 1
    5051     1250     1253 1
    5052     2215     2216 1
    5053     1097     1098 1
    5054      679      680 1
    5055     1828     1829 1
    5056     1527     1529 1
    5057     3828     3829 1
    5058     4742     4744 1
    5059     1439     1438 1
    5060     2010     2011 1
    5061     3855     3856 1
    5062     4671     4672 1
    5063     1915     1916 1
    5064     1102     1103 1
    5065     1681     1682 1
    5066     4048     4049 1
    5067     8180     8181 1
    5068     6785     6787 1
    5069     6827     6829 1
    5070     5504     5506 1
    5071     6233     6235 1
    5072    11876    11878 1
    5073    11714    11716 1
    5074     5234     5236 1
    5075     5909     5911 1
    5076    10121    10123 1
    5077     9068     9070 1
    5078     9230     9232 1
    5079      903      904 1
    5080     1348     1349 1
    5081     1551     1552 1
    5082     1354     1351 1
    5083     3574     3575 1
    5084    11481    11480 1
    5085     7286     7287 1
    5086     1904     1905 1
    5087     5507     5508 1
    5088     6227     6228 1
    5089      583      584 1
    5090      601      602 1
    5091    10352    10353 1
    5092    12080    12081 1
    5093     2177     2178 1
    5094     3936     3915 1
    5095     5870     5871 1
    5096    10325    10326 1
    5097     9299     9300 1
    5098    10163    10164 1
    5099    10514    10515 1
    5100     1896     1897 1
    5101     4500     4501 1
    5102     4156     4157 1
    5103     5702     5704 1
    5104    11234    11236 1
    5105     5024     5026 1
    5106     5921     5923 1
    5107     6083     6085 1
    5108     7919     7921 1
    5109    10889    10891 1
    5110       82       83 1
    5111     3790     3791 1
    5112     3793     3794 1
    5113     4002     4003 1
    5114     2482     2483 1
    5115     2485     2486 1
    5116     7553     7554 1
    5117     2023     2022 1
    5118     2523     2524 1
    5119     2668     2671 1
    5120     4382     4381 1
    5121     2199     2185 1
    5122     1088     1091 1
    5123     1882     1883 1
    5124     4221     4222 1
    5125      460      459 1
    5126     6446     6447 1
    5127     5636     5637 1
    5128     3070     3071 1
    5129     5321     5323 1
    5130     8237     8239 1
    5131    10370    10372 1
    5132    10706    10707 1
    5133    10544    10545 1
    5134     7817     7818 1
    5135     7574     7575 1
    5136    10532    10534 1
    5137     9317     9319 1
    5138     5981     5982 1
    5139      429      430 1
    5140     7655     7656 1
    5141     1538     1539 1
    5142     1544     1545 1
    5143     9704     9706 1
    5144    10541    10543 1
    5145    10703    10705 1
    5146     6203     6204 1
    5147     5123     5124 1
    5148     6284     6285 1
    5149     8039     8040 1
    5150     2439     2438 1
    5151    11171    11172 1
    5152     7472     7473 1
    5153     8120     8121 1
    5154     6122     6123 1
    5155      470      471 1
    5156      401      402 1
    5157     1328     1329 1
    5158    11519    11521 1
    5159    11681    11683 1
    5160     8387     8389 1
    5161     6551     6553 1
    5162     5552     5554 1
    5163     8549     8551 1
    5164     9764     9766 1
    5165       81       82 1
    5166     6632     6634 1
    5167    11357    11359 1
    5168     7298     7299 1
    5169     5780     5781 1
    5170    11990    11991 1
    5171     6860     6861 1
    5172     9749     9750 1
    5173     9911     9912 1
    5174       22       23 1
    5175     4644     4645 1
    5176     4647     4648 1
    5177     9020     9021 1
    5178     1737     1738 1
    5179     3973     3974 1
    5180     2692     2693 1
    5181     3334     3335 1
    5182     2901     2902 1
    5183     3543     3544 1
    5184     3929     3930 1
    5185     3060     3061 1
    5186     6257     6258 1
    5187     4576     4577 1
    5188    11345    11347 1
    5189    11507    11509 1
    5190     8375     8377 1
    5191     3986     3987 1
    5192     3742     3744 1
    5193     7091     7092 1
    5194     9170     9171 1
    5195     7469     7470 1
    5196    12140    12141 1
    5197     4386     4387 1
    5198     7631     7632 1
    5199     3693     3694 1
    5200    10061    10062 1
    5201      836      837 1
    5202     8384     8386 1
    5203    12194    12195 1
    5204     5066     5067 1
    5205     8687     8689 1
    5206    10469    10471 1
    5207     9092     9094 1
    5208     7499     7501 1
    5209     8984     8986 1
    5210    12224    12226 1
    5211     3640     3642 1
    5212     6662     6664 1
    5213     6608     6610 1
    5214     6338     6340 1
    5215     5879     5881 1
    5216     5210     5211 1
    5217     2642     2644 1
    5218     4461     4462 1
    5219     4016     4015 1
    5220     1720     1719 1
    5221     1885     1886 1
    5222     1625     1626 1
    5223     5735     5737 1
    5224     1709     1710 1
    5225     1591     1592 1
    5226      214      213 1
    5227     7949     7951 1
    5228      214      215 1
    5229      423      424 1
    5230      330      335 1
    5231       21       22 1
    5232     3190     3191 1
    5233     1177     1178 1
    5234     2757     2758 1
    5235     3570     3571 1
    5236     9581     9583 1
    5237     3299     3300 1
    5238     2866     2867 1
    5239     2863     2864 1
    5240     3941     3942 1
    5241     1162     1163 1
    5242      944      945 1
    5243     8915     8916 1
    5244     1034     1037 1
    5245      287      288 1
    5246     8147     8149 1
    5247     6230     6232 1
    5248     3635     3636 1
    5249     3260     3265 1
    5250     3922     3921 1
    5251     1700     1701 1
    5252     6503     6504 1
    5253     9419     9420 1
    5254     6341     6342 1
    5255    10634    10635 1
    5256     5342     5343 1
    5257     6665     6666 1
    5258     9257     9258 1
    5259     8420     8421 1
    5260     4370     4371 1
    5261     4223     4224 1
    5262     3716     3717 1
    5263     3062     3063 1
    5264     3271     3272 1
    5265      105      106 1
    5266     3097     3098 1
    5267     8342     8344 1
    5268     7283     7284 1
    5269     1832     1833 1
    5270     1268     1269 1
    5271      841      842 1
    5272     4796     4797 1
    5273     6047     6049 1
    5274     8639     8641 1
    5275     8396     8398 1
    5276     9773     9775 1
    5277     5399     5401 1
    5278    11609    11611 1
    5279    11690    11692 1
    5280    11528    11530 1
    5281     6560     6562 1
    5282     5561     5563 1
    5283     4895     4897 1
    5284     7697     7699 1
    5285     1417     1418 1
    5286    11243    11244 1
    5287     6374     6375 1
    5288     3916     3917 1
    5289       61       62 1
    5290     2160     2161 1
    5291     4262     4261 1
    5292     4409     4408 1
    5293     3168     3169 1
    5294      390      391 1
    5295     9263     9264 1
    5296      316      317 1
    5297     2541     2542 1
    5298     3195     3196 1
    5299     4030     4031 1
    5300     3167     3168 1
    5301     9986     9988 1
    5302     8933     8935 1
    5303    10241    10243 1
    5304     8777     8779 1
    5305     1992     1993 1
    5306     2300     2301 1
    5307     1844     1845 1
    5308     1131     1132 1
    5309    12320    12322 1
    5310    10514    10516 1
    5311     4309     4294 1
    5312     3933     3932 1
    5313     4715     4716 1
    5314      878      879 1
    5315     8438     8439 1
    5316     6359     6360 1
    5317     8816     8817 1
    5318     9869     9870 1
    5319    11786    11787 1
    5320     8276     8277 1
    5321    11246    11247 1
    5322     5576     5577 1
    5323     4272     4273 1
    5324      763      764 1
    5325      814      811 1
    5326    11806    11804 1
    5327      613      614 1
    5328     4319     4320 1
    5329     2383     2384 1
    5330    10698    10697 1
    5331     3591     3592 1
    5332     1516     1517 1
    5333     4419     4420 1
    5334     1072     1073 1
    5335     1203     1205 1
    5336     3342     3321 1
    5337       89       90 1
    5338      110      112 1
    5339     4032     4031 1
    5340     1732     1733 1
    5341     5633     5635 1
    5342     1492     1493 1
    5343     6095     6097 1
    5344     2064     2065 1
    5345     1084     1083 1
    5346     1054     1055 1
    5347     1394     1395 1
    5348     4252     4253 1
    5349     1970     1971 1
    5350    11420    11421 1
    5351    11663    11664 1
    5352     5453     5454 1
    5353     6722     6723 1
    5354     5804     5805 1
    5355     9854     9855 1
    5356     5723     5724 1
    5357     6533     6534 1
    5358     3722     3723 1
    5359     6452     6453 1
    5360     7958     7960 1
    5361     2131     2132 1
    5362     1837     1838 1
    5363     1984     1985 1
    5364     2765     2766 1
    5365     3843     3844 1
    5366    12236    12237 1
    5367     7187     7188 1
    5368    11237    11238 1
    5369    12287    12289 1
    5370     5597     5598 1
    5371    11645    11646 1
    5372     3593     3594 1
    5373     6434     6435 1
    5374    12023    12024 1
    5375     7136     7137 1
    5376      662      663 1
    5377     8891     8892 1
    5378     9566     9567 1
    5379     1780     1781 1
    5380    11768    11769 1
    5381     4646     4647 1
    5382     4115     4116 1
    5383     4062     4063 1
    5384     2542     2543 1
    5385     2361     2362 1
    5386     4054     4055 1
    5387     4799     4800 1
    5388     2858     2859 1
    5389     1550     1548 1
    5390     3090     3091 1
    5391     2875     2876 1
    5392    10472    10474 1
    5393     7178     7180 1
    5394     9095     9097 1
    5395    12227    12229 1
    5396    12308    12310 1
    5397     7259     7261 1
    5398    10310    10312 1
    5399     9338     9340 1
    5400     7502     7504 1
    5401     1241     1242 1
    5402     5444     5446 1
    5403     3224     3223 1
    5404      868      869 1
    5405     2848     2849 1
    5406    12296    12297 1
    5407     9083     9084 1
    5408    10460    10461 1
    5409     7490     7491 1
    5410     9326     9327 1
    5411     7247     7248 1
    5412     7166     7167 1
    5413     8333     8335 1
    5414    10298    10299 1
    5415    12215    12216 1
    5416     2771     2772 1
    5417     1617     1618 1
    5418    11828    11830 1
    5419     4174     4160 1
    5420     6074     6076 1
    5421     1705     1706 1
    5422    10388    10390 1
    5423      466      467 1
    5424     2230     2229 1
    5425     3863     3865 1
    5426     2473     2474 1
    5427     4117     4103 1
    5428     1008     1009 1
    5429     2393     2394 1
    5430     2525     2526 1
    5431     4385     4370 1
    5432     1802     1803 1
    5433     1945     1946 1
    5434     4082     4083 1
    5435     8762     8763 1
    5436     6878     6879 1
    5437     7229     7230 1
    5438     8957     8958 1
    5439     2303     2304 1
    5440     2306     2307 1
    5441     2156     2157 1
    5442     1925     1926 1
    5443     3282     3283 1
    5444     1379     1380 1
    5445      516      517 1
    5446      301      302 1
    5447      980      981 1
    5448     2294     2280 1
    5449     3306     3307 1
    5450    10757    10759 1
    5451     9542     9544 1
    5452     7787     7789 1
    5453    10595    10597 1
    5454      485      486 1
    5455     2005     2006 1
    5456      650      652 1
    5457     3798     3796 1
    5458     4736     4738 1
    5459     5309     5311 1
    5460     8981     8983 1
    5461     6146     6148 1
    5462     8063     8065 1
    5463     4838     4839 1
    5464     9602     9604 1
    5465     9863     9864 1
    5466     9305     9307 1
    5467     3015     3016 1
    5468    10520    10522 1
    5469    11960    11961 1
    5470     4964     4965 1
    5471      872      873 1
    5472        7       12 1
    5473    11204    11205 1
    5474     2471     2472 1
    5475     3549     3550 1
    5476     3758     3759 1
    5477     6317     6318 1
    5478     1731     1732 1
    5479     3278     3279 1
    5480      730      731 1
    5481      936      937 1
    5482     8114     8115 1
    5483     5096     5097 1
    5484     4748     4749 1
    5485     7805     7807 1
    5486     1954     1939 1
    5487     8828     8830 1
    5488     5750     5752 1
    5489     5768     5769 1
    5490    11735    11736 1
    5491    11978    11979 1
    5492     6443     6444 1
    5493    11411    11412 1
    5494    11654    11655 1
    5495     5363     5364 1
    5496     9737     9738 1
    5497     6524     6525 1
    5498     9656     9657 1
    5499      773      774 1
    5500     7574     7576 1
    5501    10706    10708 1
    5502     7817     7819 1
    5503    10544    10546 1
    5504     5981     5983 1
    5505     9593     9594 1
    5506     7655     7657 1
    5507     4183     4184 1
    5508     1415     1410 1
    5509    11171    11173 1
    5510     7472     7474 1
    5511     6122     6124 1
    5512     5123     5125 1
    5513     6284     6286 1
    5514     8039     8041 1
    5515     7553     7555 1
    5516      412      391 1
    5517     8120     8122 1
    5518     6203     6205 1
    5519      818      821 1
    5520      115      116 1
    5521     1297     1300 1
    5522    11939    11940 1
    5523     6458     6459 1
    5524     7133     7134 1
    5525    10022    10023 1
    5526     5216     5217 1
    5527     8969     8970 1
    5528     2991     2996 1
    5529     3879     3880 1
    5530     8759     8760 1
    5531      483      484 1
    5532     2370     2371 1
    5533    11855    11856 1
    5534     6968     6969 1
    5535      460      461 1
    5536     4611     4597 1
    5537     4294     4295 1
    5538      809      810 1
    5539     4453     4454 1
    5540     6734     6735 1
    5541     4591     4592 1
    5542    10699    10697 1
    5543     1013     1014 1
    5544      798      799 1
    5545      433      436 1
    5546     1389     1388 1
    5547     7826     7827 1
    5548     9041     9042 1
    5549     8879     8880 1
    5550    10256    10257 1
    5551     7664     7665 1
    5552    12173    12174 1
    5553    12011    12012 1
    5554    11967    11966 1
    5555     1788     1789 1
    5556     9110     9111 1
    5557     9137     9138 1
    5558     3235     3236 1
    5559    11918    11919 1
    5560     6869     6870 1
    5561     7220     7221 1
    5562     8948     8949 1
    5563    10001    10002 1
    5564    12107    12108 1
    5565    10190    10191 1
    5566    11468    11469 1
    5567     2296     2281 1
    5568     4667     4668 1
    5569     1735     1736 1
    5570      651      652 1
    5571     5381     5382 1
    5572     4868     4870 1
    5573     7913     7914 1
    5574      313      314 1
    5575     3192     3193 1
    5576     2538     2539 1
    5577     2934     2935 1
    5578     7754     7755 1
    5579     7052     7053 1
    5580     5513     5514 1
    5581    10805    10806 1
    5582     8888     8889 1
    5583      710      712 1
    5584    12020    12021 1
    5585     2998     2999 1
    5586     4322     4321 1
    5587     3649     3650 1
    5588     2236     2237 1
    5589     5231     5232 1
    5590     2150     2151 1
    5591    11585    11586 1
    5592     2501     2502 1
    5593     6698     6699 1
    5594     2840     2841 1
    5595     1114     1093 1
    5596      632      633 1
    5597      446      447 1
    5598     2034     2035 1
    5599     4190     4191 1
    5600      761      762 1
    5601      494      495 1
    5602     5426     5427 1
    5603      514      515 1
    5604     2716     2718 1
    5605     8327     8329 1
    5606     7409     7411 1
    5607    10379    10381 1
    5608    11459    11461 1
    5609     2560     2562 1
    5610    10217    10219 1
    5611     8489     8491 1
    5612     5249     5251 1
    5613     9488     9490 1
    5614     6572     6574 1
    5615    11093    11094 1
    5616     1261     1262 1
    5617     3763     3762 1
    5618     4416     4417 1
    5619     9530     9531 1
    5620     1223     1224 1
    5621    10151    10153 1
    5622     3487     3488 1
    5623     3066     3067 1
    5624     6140     6142 1
    5625     3245     3246 1
    5626     3899     3900 1
    5627    12002    12003 1
    5628    10739    10740 1
    5629     3441     3442 1
    5630     3656     3657 1
    5631     3397     3398 1
    5632     1184     1185 1
    5633      925      930 1
    5634     2424     2403 1
    5635     3123     3124 1
    5636     5645     5647 1
    5637     7931     7933 1
    5638     1033     1038 1
    5639     8630     8632 1
    5640     3301     3302 1
    5641     2641     2642 1
    5642     6359     6361 1
    5643     8438     8440 1
    5644     4715     4717 1
    5645     8816     8818 1
    5646     9869     9871 1
    5647    11786    11788 1
    5648     8276     8278 1
    5649    12158    12159 1
    5650    11246    11248 1
    5651     5576     5578 1
    5652     2621     2623 1
    5653    12275    12276 1
    5654      743      744 1
    5655     3107     3109 1
    5656     1958     1959 1
    5657    10610    10611 1
    5658     2053     2054 1
    5659      882      883 1
    5660     1536     1537 1
    5661     3357     3356 1
    5662     1813     1814 1
    5663     1497     1498 1
    5664      329      330 1
    5665     9755     9756 1
    5666    11672    11673 1
    5667    11510    11511 1
    5668     8621     8622 1
    5669     8540     8541 1
    5670     6542     6543 1
    5671     8378     8379 1
    5672    11591    11592 1
    5673     6623     6624 1
    5674    11348    11349 1
    5675     1634     1635 1
    5676     1585     1586 1
    5677     3703     3704 1
    5678     2631     2632 1
    5679     5744     5745 1
    5680     5438     5439 1
    5681     1320     1321 1
    5682     2760     2761 1
    5683     2551     2552 1
    5684      971      972 1
    5685     4823     4824 1
    5686     2439     2440 1
    5687     8561     8563 1
    5688     5558     5560 1
    5689    11363    11365 1
    5690     8393     8395 1
    5691     5396     5398 1
    5692     6557     6559 1
    5693    11606    11608 1
    5694     9770     9772 1
    5695    11525    11527 1
    5696    11687    11689 1
    5697    10199    10201 1
    5698     7397     7398 1
    5699     7486     7484 1
    5700     8978     8979 1
    5701     5375     5376 1
    5702     9737     9739 1
    5703     3424     3427 1
    5704     3181     3182 1
    5705      588      589 1
    5706     1940     1941 1
    5707     6533     6535 1
    5708     5210     5212 1
    5709     5723     5725 1
    5710    11420    11422 1
    5711     8801     8803 1
    5712     1787     1788 1
    5713    11663    11665 1
    5714     6722     6724 1
    5715     5804     5806 1
    5716     9854     9856 1
    5717     4285     4284 1
    5718     3454     3455 1
    5719     8483     8484 1
    5720     2783     2784 1
    5721    12236    12238 1
    5722     7187     7189 1
    5723     2578     2579 1
    5724    11237    11239 1
    5725     1878     1879 1
    5726     1181     1182 1
    5727     3422     3427 1
    5728      278      280 1
    5729     7136     7138 1
    5730    11645    11647 1
    5731     6434     6436 1
    5732    12023    12025 1
    5733     8891     8893 1
    5734     9566     9568 1
    5735     5597     5599 1
    5736    10442    10444 1
    5737     6974     6976 1
    5738     5435     5437 1
    5739     3566     3567 1
    5740     4898     4899 1
    5741     3888     3889 1
    5742     3894     3895 1
    5743     1269     1270 1
    5744     5330     5332 1
    5745     4648     4649 1
    5746     4264     4265 1
    5747      553      554 1
    5748     2739     2740 1
    5749     3381     3382 1
    5750     3605     3606 1
    5751     3907     3906 1
    5752     1330     1309 1
    5753    10157    10158 1
    5754     7943     7944 1
    5755     1789     1790 1
    5756    10118    10119 1
    5757     5798     5799 1
    5758     5642     5644 1
    5759     2846     2847 1
    5760     3067     3068 1
    5761     2413     2414 1
    5762     8291     8293 1
    5763    11531    11533 1
    5764    11261    11263 1
    5765     6521     6522 1
    5766     9653     9654 1
    5767     8372     8374 1
    5768     8399     8401 1
    5769    11408    11409 1
    5770     5294     5296 1
    5771     8453     8455 1
    5772     5360     5361 1
    5773     5198     5199 1
    5774     2451     2456 1
    5775     1409     1410 1
    5776     3375     3376 1
    5777    10694    10696 1
    5778      355      356 1
    5779       98       99 1
    5780     2610     2608 1
    5781     4808     4810 1
    5782     5738     5740 1
    5783     1319     1320 1
    5784     7685     7687 1
    5785       45       46 1
    5786    10736    10738 1
    5787    10817    10819 1
    5788     7523     7525 1
    5789     9521     9523 1
    5790    10655    10657 1
    5791     7766     7768 1
    5792     3866     3867 1
    5793     7481     7482 1
    5794    12341    12342 1
    5795     7643     7644 1
    5796     5582     5583 1
    5797     9209     9210 1
    5798     4110     4111 1
    5799     4641     4642 1
    5800     1243     1246 1
    5801     4341     4342 1
    5802     7292     7293 1
    5803     4257     4258 1
    5804     8822     8823 1
    5805     1290     1291 1
    5806     3074     3076 1
    5807     3637     3638 1
    5808     2091     2092 1
    5809     1160     1161 1
    5810      506      507 1
    5811     8033     8034 1
    5812     2338     2340 1
    5813     5093     5094 1
    5814     4511     4512 1
    5815     7415     7416 1
    5816     6578     6579 1
    5817    10385    10386 1
    5818     8333     8334 1
    5819    11465    11466 1
    5820     8495     8496 1
    5821    10223    10224 1
    5822     9494     9495 1
    5823     5417     5418 1
    5824     5255     5256 1
    5825     7127     7128 1
    5826    10691    10692 1
    5827       18       17 1
    5828     8027     8028 1
    5829     1800     1786 1
    5830     6629     6631 1
    5831      817      818 1
    5832     3187     3186 1
    5833     5543     5545 1
    5834    11189    11190 1
    5835     4058     4059 1
    5836      129      130 1
    5837    10085    10087 1
    5838     7025     7026 1
    5839    11075    11076 1
    5840    12074    12075 1
    5841     5864     5865 1
    5842     8105     8106 1
    5843     4533     4534 1
    5844     4838     4840 1
    5845     1428     1429 1
    5846      872      874 1
    5847     4790     4792 1
    5848     2163     2148 1
    5849      731      732 1
    5850     2419     2420 1
    5851     6383     6385 1
    5852     2536     2537 1
    5853     3402     3403 1
    5854     8303     8305 1
    5855     1380     1381 1
    5856     5960     5962 1
    5857     1010     1011 1
    5858     1237     1238 1
    5859     1273     1274 1
    5860      186      187 1
    5861      889      890 1
    5862     2059     2058 1
    5863     9824     9825 1
    5864     8285     8286 1
    5865    11255    11256 1
    5866    11336    11337 1
    5867     8366     8367 1
    5868     6773     6774 1
    5869     6368     6369 1
    5870     6611     6612 1
    5871     8447     8448 1
    5872     8690     8691 1
    5873      102      103 1
    5874     3274     3275 1
    5875     3065     3066 1
    5876     7850     7852 1
    5877     3359     3360 1
    5878      548      551 1
    5879     1982     1983 1
    5880     1835     1836 1
    5881     5588     5589 1
    5882     1053     1054 1
    5883      620      621 1
    5884      399      400 1
    5885     4126     4125 1
    5886     2828     2827 1
    5887     1622     1624 1
    5888     6458     6460 1
    5889    11939    11941 1
    5890    10022    10024 1
    5891     5216     5218 1
    5892     7133     7135 1
    5893     8969     8971 1
    5894     2774     2779 1
    5895    10145    10147 1
    5896     1310     1311 1
    5897     3786     3785 1
    5898     3394     3393 1
    5899     3020     3021 1
    5900     1923     1924 1
    5901     1852     1851 1
    5902     8927     8928 1
    5903     2009     2008 1
    5904     5606     5607 1
    5905     4545     4546 1
    5906     9698     9699 1
    5907     7538     7539 1
    5908    10670    10671 1
    5909     1798     1799 1
    5910     5648     5649 1
    5911     1290     1289 1
    5912     6728     6729 1
    5913     3854     3859 1
    5914     2502     2503 1
    5915    11924    11926 1
    5916     1975     1974 1
    5917      998      997 1
    5918      328      329 1
    5919     1122     1123 1
    5920     1343     1344 1
    5921      477      478 1
    5922     6977     6978 1
    5923     3776     3777 1
    5924      822      823 1
    5925     1809     1810 1
    5926     2037     2038 1
    5927     1890     1891 1
    5928     1195     1196 1
    5929     5987     5988 1
    5930     1505     1506 1
    5931     3515     3516 1
    5932     3088     3089 1
    5933     3633     3636 1
    5934      261      262 1
    5935     6746     6747 1
    5936       89       88 1
    5937      544      542 1
    5938     4391     4392 1
    5939      369      370 1
    5940      251      252 1
    5941      391      392 1
    5942     2593     2594 1
    5943      877      878 1
    5944    11795    11796 1
    5945     9956     9957 1
    5946    12278    12279 1
    5947     1309     1310 1
    5948    10028    10030 1
    5949     3890     3891 1
    5950     8888     8890 1
    5951    12020    12022 1
    5952     7052     7054 1
    5953     7754     7756 1
    5954    10805    10807 1
    5955     5513     5515 1
    5956     4130     4131 1
    5957      539      540 1
    5958      748      749 1
    5959     4904     4906 1
    5960     5906     5908 1
    5961     1681     1686 1
    5962     2036     2037 1
    5963     5339     5341 1
    5964      132      131 1
    5965    11819    11821 1
    5966     1114     1115 1
    5967     4733     4735 1
    5968     2567     2569 1
    5969      902      903 1
    5970      484      485 1
    5971     1347     1348 1
    5972     9470     9472 1
    5973     1802     1787 1
    5974     2343     2344 1
    5975     3846     3847 1
    5976     3582     3583 1
    5977     5972     5973 1
    5978     1473     1474 1
    5979     9455     9456 1
    5980     1858     1859 1
    5981     2126     2127 1
    5982    10238    10239 1
    5983     7619     7620 1
    5984     7967     7968 1
    5985      783      784 1
    5986     3434     3435 1
    5987     3440     3441 1
    5988     1627     1632 1
    5989    11849    11850 1
    5990      876      877 1
    5991     6962     6963 1
    5992      265      266 1
    5993    11546    11548 1
    5994      884      885 1
    5995     3506     3507 1
    5996     9608     9610 1
    5997     3349     3350 1
    5998     3994     3995 1
    5999    12281    12283 1
    6000    10364    10366 1
    6001     4219     4220 1
    6002     8231     8233 1
    6003     9311     9313 1
    6004    10526    10528 1
    6005     3361     3362 1
    6006    11657    11659 1
    6007     1610     1609 1
    6008       48       49 1
    6009     9980     9982 1
    6010      560      561 1
    6011      348      349 1
    6012     2844     2845 1
    6013     8207     8208 1
    6014     4688     4690 1
    6015     2694     2673 1
    6016     7058     7059 1
    6017     8975     8976 1
    6018    10865    10866 1
    6019     8057     8058 1
    6020     4069     4070 1
    6021     7895     7896 1
    6022     4979     4980 1
    6023     3872     3873 1
    6024     1946     1947 1
    6025     5255     5257 1
    6026      381      382 1
    6027     5531     5533 1
    6028     1902     1901 1
    6029     8534     8536 1
    6030     9755     9757 1
    6031     8540     8542 1
    6032     6542     6544 1
    6033    11672    11674 1
    6034    11510    11512 1
    6035     8621     8623 1
    6036     5462     5464 1
    6037     8378     8380 1
    6038    11591    11593 1
    6039     6623     6625 1
    6040     3136     3137 1
    6041       76       77 1
    6042     1656     1658 1
    6043      116      118 1
    6044    11957    11959 1
    6045    10682    10683 1
    6046     3046     3048 1
    6047     5834     5836 1
    6048     3249     3250 1
    6049     2595     2596 1
    6050     2598     2599 1
    6051     4632     4633 1
    6052     7382     7383 1
    6053     6386     6388 1
    6054     3444     3443 1
    6055     2256     2242 1
    6056     2479     2480 1
    6057     4570     4571 1
    6058     5078     5079 1
    6059    10235    10236 1
    6060     3121     3122 1
    6061     2900     2901 1
    6062     3176     3177 1
    6063     4042     4043 1
    6064     1810     1811 1
    6065     2656     2657 1
    6066     1168     1147 1
    6067     1370     1371 1
    6068     1152     1153 1
    6069      298      299 1
    6070     1464     1469 1
    6071     9425     9427 1
    6072    10046    10048 1
    6073     5348     5350 1
    6074     6158     6160 1
    6075     6671     6673 1
    6076     6509     6511 1
    6077     6347     6349 1
    6078     8426     8428 1
    6079     1280     1281 1
    6080     8075     8077 1
    6081     3511     3512 1
    6082     1377     1378 1
    6083    10295    10297 1
    6084     8795     8796 1
    6085     9686     9687 1
    6086    11927    11928 1
    6087    10010    10011 1
    6088     9227     9228 1
    6089     6959     6960 1
    6090    11846    11847 1
    6091    11414    11415 1
    6092     6527     6528 1
    6093     9659     9660 1
    6094      622      623 1
    6095      643      644 1
    6096     1682     1684 1
    6097     2944     2945 1
    6098      240      239 1
    6099     6932     6933 1
    6100     7313     7314 1
    6101    10961    10962 1
    6102     3764     3765 1
    6103     3979     3980 1
    6104     4656     4657 1
    6105     4165     4164 1
    6106     8048     8050 1
    6107     2402     2403 1
    6108     3150     3147 1
    6109    11306    11307 1
    6110    10157    10159 1
    6111     7943     7945 1
    6112     1935     1936 1
    6113     1088     1090 1
    6114     7874     7875 1
    6115     7712     7713 1
    6116     5876     5877 1
    6117    12086    12087 1
    6118    10844    10845 1
    6119    10931    10932 1
    6120    10169    10170 1
    6121     6044     6045 1
    6122     7037     7038 1
    6123    10331    10332 1
    6124     1476     1475 1
    6125     6521     6523 1
    6126    11408    11410 1
    6127     7061     7063 1
    6128     5360     5362 1
    6129     5198     5200 1
    6130     8978     8980 1
    6131     9653     9655 1
    6132    10031    10033 1
    6133    11948    11950 1
    6134     2459     2461 1
    6135      932      933 1
    6136     3978     3979 1
    6137     3823     3824 1
    6138     7856     7857 1
    6139    11069    11070 1
    6140     8099     8100 1
    6141    11150    11151 1
    6142     8261     8262 1
    6143     6020     6021 1
    6144      170      173 1
    6145    10988    10989 1
    6146     8018     8019 1
    6147    12008    12010 1
    6148      464      465 1
    6149     1327     1328 1
    6150     1914     1900 1
    6151    10616    10617 1
    6152     6782     6783 1
    6153     5999     6000 1
    6154     4071     4072 1
    6155    11831    11832 1
    6156     2314     2315 1
    6157     2673     2674 1
    6158    10856    10857 1
    6159     8792     8793 1
    6160     2422     2423 1
    6161     3924     3925 1
    6162      722      723 1
    6163     5114     5116 1
    6164    10232    10233 1
    6165     8309     8311 1
    6166     4276     4277 1
    6167     4660     4661 1
    6168      111      112 1
    6169      804      805 1
    6170     9889     9887 1
    6171      183      184 1
    6172     4119     4104 1
    6173     8987     8988 1
    6174     6152     6153 1
    6175     8069     8070 1
    6176     1332     1334 1
    6177     4991     4992 1
    6178    10040    10041 1
    6179    10877    10878 1
    6180     2566     2567 1
    6181     7070     7071 1
    6182     8093     8095 1
    6183     1276     1255 1
    6184     8612     8613 1
    6185      617      618 1
    6186     8084     8085 1
    6187     7841     7842 1
    6188    11135    11136 1
    6189     8246     8247 1
    6190    11054    11055 1
    6191      179      177 1
    6192     8003     8004 1
    6193    10973    10974 1
    6194     6005     6006 1
    6195     1196     1198 1
    6196     1627     1628 1
    6197     3044     3049 1
    6198     1385     1386 1
    6199     4754     4756 1
    6200     5864     5866 1
    6201    11075    11077 1
    6202    12074    12076 1
    6203     8105     8107 1
    6204     7025     7027 1
    6205     7286     7288 1
    6206     4712     4713 1
    6207    11693    11694 1
    6208    11369    11370 1
    6209     2429     2430 1
    6210     4328     4329 1
    6211     3045     3046 1
    6212      127      126 1
    6213     3799     3800 1
    6214     2743     2744 1
    6215     7031     7033 1
    6216     5522     5523 1
    6217    11570    11571 1
    6218     8600     8601 1
    6219     6683     6684 1
    6220     9815     9816 1
    6221      607      608 1
    6222     1647     1646 1
    6223     2262     2263 1
    6224     1993     1994 1
    6225      521      522 1
    6226     1007     1008 1
    6227    10964    10965 1
    6228     7193     7195 1
    6229     9191     9193 1
    6230    12323    12325 1
    6231     7436     7438 1
    6232    12242    12244 1
    6233     7274     7276 1
    6234     9272     9274 1
    6235       69       71 1
    6236      637      638 1
    6237     1540     1541 1
    6238     4247     4248 1
    6239     2711     2712 1
    6240     6389     6391 1
    6241     9713     9715 1
    6242     1327     1326 1
    6243     5153     5154 1
    6244    12119    12120 1
    6245     9266     9268 1
    6246     3644     3645 1
    6247     5648     5650 1
    6248     9698     9700 1
    6249     7538     7540 1
    6250    10670    10672 1
    6251     3435     3436 1
    6252     6728     6730 1
    6253     4658     4659 1
    6254     5291     5293 1
    6255     4593     4594 1
    6256     5324     5326 1
    6257      612      613 1
    6258     1693     1694 1
    6259     6770     6772 1
    6260      313      312 1
    6261     1021     1020 1
    6262      260      261 1
    6263     9746     9747 1
    6264    11987    11988 1
    6265    10448    10449 1
    6266      924      929 1
    6267     9395     9396 1
    6268     3743     3744 1
    6269     9017     9018 1
    6270     9908     9909 1
    6271     6938     6939 1
    6272     8855     8856 1
    6273     2140     2141 1
    6274      243      244 1
    6275     1530     1531 1
    6276     1112     1113 1
    6277     2759     2760 1
    6278     1321     1322 1
    6279      356      357 1
    6280     1643     1644 1
    6281      106      107 1
    6282     5516     5517 1
    6283    11564    11565 1
    6284     8432     8433 1
    6285     8270     8271 1
    6286     6353     6354 1
    6287     4456     4455 1
    6288     9809     9810 1
    6289     8594     8595 1
    6290     6677     6678 1
    6291    11240    11241 1
    6292     1778     1777 1
    6293      510      511 1
    6294      292      293 1
    6295      504      505 1
    6296      965      966 1
    6297      311      312 1
    6298     2775     2780 1
    6299     3106     3107 1
    6300     3537     3538 1
    6301     5483     5485 1
    6302     1666     1667 1
    6303     1236     1237 1
    6304     4627     4628 1
    6305     1828     1827 1
    6306     1202     1203 1
    6307     4523     4524 1
    6308     4376     4377 1
    6309     3922     3923 1
    6310     3489     3490 1
    6311     3429     3430 1
    6312     4011     4014 1
    6313     6842     6843 1
    6314     8840     8841 1
    6315     9893     9894 1
    6316     9002     9003 1
    6317    11972    11973 1
    6318     9731     9732 1
    6319     2124     2125 1
    6320      737      738 1
    6321     5762     5763 1
    6322     6923     6924 1
    6323     1116     1117 1
    6324     9455     9457 1
    6325     5972     5974 1
    6326     7619     7621 1
    6327    10238    10240 1
    6328     2334     2335 1
    6329     3384     3383 1
    6330    11861    11863 1
    6331     2588     2589 1
    6332     3569     3570 1
    6333     3694     3696 1
    6334     3034     3035 1
    6335     3369     3374 1
    6336     3309     3312 1
    6337     8705     8706 1
    6338     1354     1355 1
    6339     2665     2666 1
    6340     1503     1504 1
    6341     4970     4972 1
    6342     2188     2189 1
    6343     3256     3258 1
    6344     7121     7122 1
    6345     3019     3020 1
    6346    10748    10749 1
    6347     5453     5455 1
    6348     1146     1147 1
    6349    10262    10264 1
    6350     8885     8887 1
    6351     7832     7834 1
    6352     9047     9049 1
    6353      647      648 1
    6354     4485     4486 1
    6355     7670     7672 1
    6356    12179    12181 1
    6357    12017    12019 1
    6358     2121     2122 1
    6359     1893     1894 1
    6360     4060     4061 1
    6361     3297     3298 1
    6362     9029     9031 1
    6363     9380     9382 1
    6364    10433    10435 1
    6365     8867     8869 1
    6366    11999    12001 1
    6367    12188    12190 1
    6368    12161    12163 1
    6369    10244    10246 1
    6370     5569     5567 1
    6371     4781     4782 1
    6372     5498     5500 1
    6373     7982     7984 1
    6374    11870    11872 1
    6375     5822     5824 1
    6376     5903     5905 1
    6377    10952    10954 1
    6378     6821     6823 1
    6379     2144     2129 1
    6380     2800     2801 1
    6381     9953     9955 1
    6382    10268    10269 1
    6383     4440     4426 1
    6384     2680     2681 1
    6385      544      541 1
    6386     4506     4507 1
    6387     6293     6295 1
    6388     8588     8590 1
    6389    11180    11182 1
    6390     4378     4379 1
    6391     1151     1152 1
    6392      942      943 1
    6393     5036     5037 1
    6394     4202     4203 1
    6395      321      322 1
    6396     3398     3400 1
    6397      533      534 1
    6398     8006     8007 1
    6399     9278     9279 1
    6400     7199     7200 1
    6401    12329    12330 1
    6402     7442     7443 1
    6403     9197     9198 1
    6404     7280     7281 1
    6405     4025     4026 1
    6406    12248    12249 1
    6407     7103     7105 1
    6408      403      404 1
    6409     2148     2149 1
    6410      169      170 1
    6411     4186     4187 1
    6412     1839     1840 1
    6413     3269     3271 1
    6414    11414    11416 1
    6415     6527     6529 1
    6416    11846    11848 1
    6417     5798     5800 1
    6418    10118    10120 1
    6419     9659     9661 1
    6420     9119     9121 1
    6421     7121     7123 1
    6422    10091    10093 1
    6423     9848     9850 1
    6424     2424     2425 1
    6425     1318     1319 1
    6426     2113     2114 1
    6427     3970     3969 1
    6428     4832     4833 1
    6429     6239     6240 1
    6430     4784     4785 1
    6431      601      606 1
    6432     1426     1425 1
    6433     4262     4263 1
    6434     4409     4410 1
    6435     1616     1617 1
    6436     2972     2973 1
    6437     2355     2356 1
    6438      962      963 1
    6439    11768    11770 1
    6440     4670     4671 1
    6441     4214     4215 1
    6442      814      812 1
    6443     4372     4373 1
    6444     4228     4229 1
    6445     4525     4526 1
    6446     4606     4607 1
    6447    11009    11011 1
    6448     1602     1604 1
    6449     1480     1481 1
    6450     1742     1741 1
    6451    11930    11931 1
    6452     9473     9474 1
    6453     7556     7557 1
    6454    10013    10014 1
    6455     6881     6882 1
    6456     9122     9123 1
    6457     8960     8961 1
    6458     3614     3615 1
    6459    10688    10689 1
    6460     1426     1427 1
    6461     6054     6053 1
    6462     2847     2848 1
    6463      351      352 1
    6464     7661     7663 1
    6465     2635     2636 1
    6466     2063     2064 1
    6467     8633     8635 1
    6468     1701     1702 1
    6469     1047     1048 1
    6470    11069    11071 1
    6471     7856     7858 1
    6472     8099     8101 1
    6473    11150    11152 1
    6474     8261     8263 1
    6475     6020     6022 1
    6476    10988    10990 1
    6477     8180     8182 1
    6478     8018     8020 1
    6479     6782     6784 1
    6480     5999     6001 1
    6481    10616    10618 1
    6482    11831    11833 1
    6483     1032     1031 1
    6484      309      310 1
    6485    10667    10669 1
    6486     3472     3474 1
    6487    12257    12259 1
    6488      926      929 1
    6489     5402     5403 1
    6490     7046     7048 1
    6491     2734     2733 1
    6492     1244     1246 1
    6493     2664     2665 1
    6494      154      153 1
    6495     2735     2736 1
    6496       20       21 1
    6497     2120     2121 1
    6498      545      546 1
    6499     4401     4402 1
    6500     2762     2763 1
    6501    10154    10156 1
    6502     2269     2270 1
    6503     1652     1653 1
    6504     2116     2117 1
    6505     2234     2235 1
    6506     1997     1998 1
    6507     1561     1562 1
    6508      913      914 1
    6509     9269     9271 1
    6510      417      418 1
    6511     6548     6549 1
    6512     5549     5550 1
    6513     9761     9762 1
    6514    11516    11517 1
    6515    11354    11355 1
    6516     5468     5469 1
    6517    11597    11598 1
    6518     5387     5388 1
    6519     4251     4252 1
    6520     4913     4915 1
    6521     7718     7720 1
    6522     3945     3946 1
    6523     4546     4547 1
    6524    11006    11008 1
    6525     8296     8294 1
    6526      419      420 1
    6527     3023     3024 1
    6528      870      875 1
    6529     3042     3043 1
    6530     3475     3476 1
    6531     1419     1421 1
    6532     4655     4656 1
    6533     8759     8761 1
    6534     2163     2164 1
    6535     7955     7957 1
    6536     5561     5562 1
    6537    11570    11572 1
    6538     5522     5524 1
    6539     6683     6685 1
    6540     1689     1690 1
    6541     8525     8527 1
    6542     7379     7380 1
    6543     9815     9817 1
    6544     8600     8602 1
    6545    11954    11956 1
    6546     8672     8673 1
    6547      494      496 1
    6548      911      912 1
    6549     5183     5184 1
    6550    11393    11394 1
    6551     6425     6426 1
    6552     5021     5022 1
    6553    11231    11232 1
    6554      930      931 1
    6555     6263     6264 1
    6556     2829     2830 1
    6557     5102     5103 1
    6558    11312    11313 1
    6559     7673     7674 1
    6560     7727     7728 1
    6561     4901     4902 1
    6562     7400     7402 1
    6563     4669     4670 1
    6564    10754    10755 1
    6565     1108     1107 1
    6566     9539     9540 1
    6567     7784     7785 1
    6568    10835    10836 1
    6569     1353     1354 1
    6570    10592    10593 1
    6571     7865     7866 1
    6572     3013     3014 1
    6573     1524     1525 1
    6574     1068     1069 1
    6575     1722     1723 1
    6576     3838     3839 1
    6577     2548     2549 1
    6578     3629     3630 1
    6579      968      969 1
    6580     1645     1646 1
    6581     2489     2490 1
    6582     3143     3144 1
    6583     7652     7653 1
    6584     9578     9580 1
    6585     2884     2886 1
    6586     1727     1728 1
    6587     1067     1068 1
    6588     1676     1678 1
    6589     4298     4299 1
    6590    10860    10859 1
    6591     2586     2565 1
    6592     9527     9528 1
    6593    10379    10380 1
    6594     1913     1914 1
    6595     3018     2997 1
    6596     1093     1094 1
    6597     3802     3803 1
    6598     2418     2419 1
    6599     1991     1992 1
    6600     2024     2025 1
    6601     9746     9748 1
    6602     9017     9019 1
    6603    11987    11989 1
    6604    10448    10450 1
    6605     9395     9397 1
    6606     9908     9910 1
    6607     8855     8857 1
    6608     5777     5779 1
    6609     6938     6940 1
    6610    12203    12205 1
    6611     3613     3614 1
    6612     7175     7176 1
    6613    11336    11338 1
    6614     6812     6814 1
    6615    11699    11701 1
    6616     6779     6781 1
    6617     8432     8434 1
    6618     6353     6355 1
    6619    11564    11566 1
    6620     5516     5518 1
    6621     9809     9811 1
    6622    11792    11794 1
    6623    11240    11242 1
    6624     6677     6679 1
    6625     8270     8272 1
    6626     8594     8596 1
    6627     4008     4009 1
    6628       85       86 1
    6629     2700     2701 1
    6630     3478     3479 1
    6631     4079     4065 1
    6632     4161     4162 1
    6633     3616     3617 1
    6634     3606     3607 1
    6635     8699     8700 1
    6636     2952     2953 1
    6637       94       95 1
    6638     1213     1214 1
    6639      660      661 1
    6640     2370     2349 1
    6641     9146     9147 1
    6642     5366     5367 1
    6643     6716     6717 1
    6644     2849     2850 1
    6645     1161     1162 1
    6646      507      508 1
    6647     2759     2758 1
    6648      682      683 1
    6649     5537     5539 1
    6650     3424     3426 1
    6651    11396    11398 1
    6652     9830     9832 1
    6653     6428     6430 1
    6654     8696     8698 1
    6655     5186     5188 1
    6656     5105     5107 1
    6657      569      568 1
    6658     6266     6268 1
    6659     3403     3404 1
    6660     3942     3943 1
    6661     3733     3734 1
    6662    11216    11218 1
    6663      776      777 1
    6664     6410     6412 1
    6665    11378    11380 1
    6666     6167     6169 1
    6667     5168     5170 1
    6668     6248     6250 1
    6669     1430     1431 1
    6670     5087     5089 1
    6671    11297    11299 1
    6672     6839     6840 1
    6673    11644    11642 1
    6674     4757     4758 1
    6675    10871    10873 1
    6676      434      436 1
    6677     9944     9945 1
    6678     9074     9075 1
    6679     2776     2777 1
    6680     5807     5808 1
    6681     7724     7725 1
    6682     8156     8157 1
    6683     7319     7320 1
    6684    11288    11289 1
    6685     8318     8319 1
    6686     6806     6807 1
    6687     3552     3553 1
    6688     1734     1735 1
    6689      633      634 1
    6690     2898     2899 1
    6691    11093    11095 1
    6692      497      492 1
    6693     5051     5053 1
    6694     2396     2401 1
    6695    10973    10975 1
    6696     2749     2750 1
    6697     6182     6184 1
    6698     6320     6322 1
    6699    11207    11209 1
    6700     3828     3807 1
    6701     5477     5478 1
    6702      830      831 1
    6703     1513     1516 1
    6704     2039     2040 1
    6705     6830     6831 1
    6706    11717    11718 1
    6707     8531     8532 1
    6708     6614     6615 1
    6709    10124    10125 1
    6710     9962     9963 1
    6711     5831     5832 1
    6712    11501    11502 1
    6713     8693     8694 1
    6714     8369     8370 1
    6715     3958     3960 1
    6716     9923     9925 1
    6717      223      224 1
    6718     4599     4600 1
    6719     4143     4144 1
    6720     3664     3665 1
    6721       52       53 1
    6722     3219     3220 1
    6723     7886     7887 1
    6724     6713     6714 1
    6725     3883     3882 1
    6726    11162    11164 1
    6727     6275     6277 1
    6728     7355     7356 1
    6729     4184     4185 1
    6730     3936     3937 1
    6731     3420     3417 1
    6732      785      786 1
    6733     7550     7552 1
    6734     9005     9007 1
    6735     4132     4133 1
    6736     4279     4280 1
    6737     2459     2460 1
    6738     1285     1286 1
    6739     4138     4123 1
    6740     6098     6099 1
    6741    10904    10905 1
    6742     7934     7935 1
    6743     5936     5937 1
    6744     3253     3254 1
    6745     5534     5535 1
    6746     1262     1263 1
    6747     4512     4513 1
    6748     6599     6600 1
    6749     5519     5520 1
    6750     6761     6762 1
    6751     8678     8679 1
    6752     4437     4438 1
    6753    11567    11568 1
    6754    11810    11811 1
    6755     9812     9813 1
    6756     8516     8517 1
    6757     2806     2807 1
    6758     3457     3458 1
    6759     1973     1974 1
    6760      527      528 1
    6761     5285     5287 1
    6762     3964     3965 1
    6763     3753     3754 1
    6764    10172    10173 1
    6765     2647     2648 1
    6766     3080     3081 1
    6767    10244    10245 1
    6768     2888     2889 1
    6769     5069     5071 1
    6770     7076     7077 1
    6771     9899     9900 1
    6772     1708     1687 1
    6773     8558     8560 1
    6774     7295     7296 1
    6775     7214     7215 1
    6776     9212     9213 1
    6777     4772     4774 1
    6778    12344    12345 1
    6779      593      594 1
    6780     9644     9645 1
    6781      948      947 1
    6782     1250     1252 1
    6783     1846     1847 1
    6784     7715     7716 1
    6785       15       17 1
    6786     8615     8616 1
    6787     3923     3924 1
    6788     9113     9114 1
    6789    10004    10005 1
    6790     7115     7116 1
    6791    11921    11922 1
    6792     8951     8952 1
    6793      230      231 1
    6794     6872     6873 1
    6795     9923     9924 1
    6796    10085    10086 1
    6797     8708     8709 1
    6798     4214     4199 1
    6799     1546     1525 1
    6800     9218     9220 1
    6801    12350    12352 1
    6802    10109    10111 1
    6803     9056     9058 1
    6804     7112     7114 1
    6805    10271    10273 1
    6806     9920     9922 1
    6807     7301     7303 1
    6808    10082    10084 1
    6809     8705     8707 1
    6810    10861    10859 1
    6811     4982     4983 1
    6812     5666     5667 1
    6813     4625     4626 1
    6814     4322     4323 1
    6815     4619     4620 1
    6816     1255     1254 1
    6817     4469     4470 1
    6818     5894     5895 1
    6819    11186    11187 1
    6820     4694     4695 1
    6821     1494     1495 1
    6822     3032     3033 1
    6823    11738    11739 1
    6824     6680     6681 1
    6825     1757     1758 1
    6826     2054     2055 1
    6827     2328     2329 1
    6828     2809     2810 1
    6829     3678     3679 1
    6830     1097     1095 1
    6831     8150     8152 1
    6832     4355     4356 1
    6833     1178     1179 1
    6834      123      125 1
    6835     4046     4048 1
    6836     2690     2691 1
    6837     1416     1417 1
    6838      628      629 1
    6839     1819     1805 1
    6840    11366    11367 1
    6841     3262     3263 1
    6842     6548     6550 1
    6843    11516    11518 1
    6844    11678    11680 1
    6845     5468     5470 1
    6846    11597    11599 1
    6847     5549     5551 1
    6848     9761     9763 1
    6849    11354    11356 1
    6850     1779     1780 1
    6851     1934     1935 1
    6852     1848     1849 1
    6853     8864     8865 1
    6854     4481     4482 1
    6855     4420     4421 1
    6856     2342     2347 1
    6857     7388     7389 1
    6858     1176     1177 1
    6859     2267     2268 1
    6860     1344     1345 1
    6861      263      264 1
    6862     4419     4418 1
    6863     1750     1751 1
    6864      240      241 1
    6865      673      674 1
    6866     2360     2361 1
    6867     9107     9108 1
    6868     8945     8946 1
    6869     6866     6867 1
    6870    10079    10080 1
    6871     7109     7110 1
    6872     9998     9999 1
    6873    11915    11916 1
    6874     9917     9918 1
    6875     3261     3262 1
    6876     8702     8703 1
    6877     9689     9690 1
    6878    10208    10209 1
    6879      717      718 1
    6880      881      882 1
    6881     2889     2890 1
    6882     6503     6505 1
    6883     9419     9421 1
    6884     6341     6343 1
    6885     6665     6667 1
    6886     1672     1673 1
    6887     8420     8422 1
    6888    10634    10636 1
    6889     5342     5344 1
    6890     1215     1216 1
    6891     9257     9259 1
    6892     8924     8926 1
    6893    10010    10012 1
    6894     7972     7970 1
    6895     7061     7062 1
    6896     2803     2804 1
    6897      954      955 1
    6898     3789     3790 1
    6899     8846     8848 1
    6900      557      558 1
    6901    10286    10287 1
    6902      979      980 1
    6903    11231    11233 1
    6904    11393    11395 1
    6905     5102     5104 1
    6906     6425     6427 1
    6907     5183     5185 1
    6908     6263     6265 1
    6909     3692     3697 1
    6910    11312    11314 1
    6911        7        8 1
    6912     5021     5023 1
    6913    10037    10038 1
    6914      716      717 1
    6915     7673     7675 1
    6916     7727     7729 1
    6917     2569     2570 1
    6918     6611     6613 1
    6919     4901     4903 1
    6920     5570     5572 1
    6921     9539     9541 1
    6922    10754    10756 1
    6923     7784     7786 1
    6924    10835    10837 1
    6925    10592    10594 1
    6926     7865     7867 1
    6927     7703     7705 1
    6928    10997    10999 1
    6929     5237     5239 1
    6930     5042     5043 1
    6931     3505     3506 1
    6932     1761     1762 1
    6933     3955     3956 1
    6934     1406     1408 1
    6935     4567     4568 1
    6936       32       33 1
    6937     2476     2477 1
    6938     4496     4497 1
    6939     3178     3179 1
    6940     4461     4446 1
    6941    10082    10083 1
    6942     2245     2246 1
    6943     4844     4846 1
    6944     4724     4726 1
    6945      987      988 1
    6946       46       47 1
    6947     2583     2584 1
    6948     9929     9930 1
    6949     3797     3798 1
    6950     3801     3802 1
    6951     3235     3234 1
    6952    10802    10804 1
    6953    11882    11884 1
    6954     9965     9967 1
    6955     5711     5712 1
    6956     6710     6711 1
    6957    11840    11841 1
    6958     8789     8790 1
    6959     5915     5917 1
    6960     9842     9843 1
    6961     9680     9681 1
    6962     5792     5793 1
    6963     6953     6954 1
    6964     4571     4572 1
    6965     1541     1542 1
    6966     3369     3370 1
    6967     2772     2769 1
    6968     2701     2702 1
    6969     1992     1977 1
    6970     2713     2714 1
    6971     9902     9903 1
    6972     8849     8850 1
    6973     5771     5772 1
    6974     9740     9741 1
    6975    11981    11982 1
    6976     9389     9390 1
    6977     8282     8283 1
    6978     8444     8445 1
    6979     9011     9012 1
    6980    11792    11793 1
    6981     4856     4858 1
    6982      741      740 1
    6983     1034     1036 1
    6984      738      740 1
    6985     1731     1730 1
    6986     3699     3700 1
    6987     6470     6472 1
    6988    11276    11278 1
    6989     3439     3440 1
    6990     6227     6229 1
    6991    11033    11035 1
    6992     8144     8146 1
    6993     8306     8308 1
    6994     2785     2786 1
    6995     5957     5959 1
    6996     5228     5230 1
    6997     5489     5490 1
    6998     8102     8103 1
    6999    11072    11073 1
    7000     8183     8184 1
    7001     8264     8265 1
    7002     7859     7860 1
    7003     8021     8022 1
    7004    11153    11154 1
    7005     6023     6024 1
    7006     5912     5913 1
    7007    10991    10992 1
    7008     9875     9876 1
    7009     1069     1070 1
    7010     6746     6748 1
    7011     4201     4200 1
    7012      518      519 1
    7013      727      728 1
    7014     1587     1588 1
    7015     3011     3012 1
    7016     8699     8701 1
    7017     4302     4303 1
    7018    11795    11797 1
    7019     1393     1394 1
    7020     4508     4509 1
    7021      969      970 1
    7022    12125    12127 1
    7023     4880     4882 1
    7024     2699     2698 1
    7025     3138     3137 1
    7026     3039     3042 1
    7027     2729     2730 1
    7028     7118     7119 1
    7029     9062     9063 1
    7030    10115    10116 1
    7031     8711     8712 1
    7032     7307     7308 1
    7033    10277    10278 1
    7034     9926     9927 1
    7035     9224     9225 1
    7036    10088    10089 1
    7037      410      409 1
    7038    12152    12154 1
    7039      839      840 1
    7040     2278     2279 1
    7041     2235     2236 1
    7042     3532     3535 1
    7043     1660     1659 1
    7044       36       37 1
    7045     3115     3116 1
    7046     3336     3337 1
    7047     2503     2504 1
    7048     3172     3173 1
    7049     8801     8802 1
    7050     9767     9769 1
    7051     2518     2519 1
    7052     7565     7566 1
    7053     8213     8214 1
    7054     5297     5298 1
    7055     2026     2027 1
    7056     3996     3995 1
    7057     4374     4375 1
    7058     4458     4459 1
    7059     6077     6078 1
    7060     6794     6795 1
    7061     1255     1256 1
    7062      741      742 1
    7063     2358     2359 1
    7064     5690     5691 1
    7065     3627     3628 1
    7066     4685     4687 1
    7067    11849    11851 1
    7068     6962     6964 1
    7069     1368     1369 1
    7070     1006     1007 1
    7071     3107     3108 1
    7072     1016     1017 1
    7073     1443     1444 1
    7074     1322     1323 1
    7075     2825     2826 1
    7076     8507     8509 1
    7077       96       97 1
    7078      566      567 1
    7079     2638     2639 1
    7080     5244     5243 1
    7081      990      991 1
    7082     4151     4152 1
    7083    10212    10211 1
    7084     7823     7825 1
    7085     1829     1830 1
    7086     2057     2058 1
    7087     4503     4504 1
    7088     4356     4357 1
    7089    11537    11539 1
    7090     5600     5602 1
    7091     8531     8533 1
    7092     6614     6616 1
    7093     8207     8209 1
    7094    10124    10126 1
    7095     9962     9964 1
    7096     5831     5833 1
    7097     8693     8695 1
    7098     6776     6778 1
    7099     9233     9235 1
    7100     8369     8371 1
    7101     2694     2695 1
    7102     4139     4140 1
    7103    10943    10945 1
    7104     3556     3557 1
    7105    12167    12169 1
    7106     5555     5556 1
    7107     5564     5565 1
    7108     3298     3299 1
    7109     3519     3520 1
    7110     2865     2866 1
    7111     8870     8872 1
    7112     2076     2077 1
    7113     2738     2739 1
    7114     3825     3826 1
    7115     3171     3172 1
    7116     3380     3381 1
    7117     3392     3393 1
    7118     9575     9576 1
    7119     4095     4096 1
    7120     2588     2590 1
    7121     3815     3816 1
    7122     6269     6270 1
    7123     5108     5109 1
    7124      571      572 1
    7125    10928    10929 1
    7126     6041     6042 1
    7127      904      905 1
    7128     6266     6267 1
    7129     3055     3056 1
    7130      853      854 1
    7131     1820     1821 1
    7132     3638     3643 1
    7133     1411     1412 1
    7134     3185     3186 1
    7135     3621     3622 1
    7136    11906    11907 1
    7137     2764     2765 1
    7138     2719     2720 1
    7139     4799     4801 1
    7140    11482    11480 1
    7141    11633    11634 1
    7142     1098     1099 1
    7143     2570     2571 1
    7144     2096     2095 1
    7145     6056     6057 1
    7146    11267    11268 1
    7147      379      382 1
    7148    10361    10362 1
    7149    11201    11202 1
    7150     4266     4267 1
    7151     4413     4414 1
    7152     2613     2618 1
    7153     1518     1523 1
    7154       28       29 1
    7155     3476     3481 1
    7156      212      213 1
    7157     7391     7392 1
    7158     3288     3267 1
    7159    12272    12273 1
    7160    11351    11353 1
    7161     8624     8626 1
    7162     9644     9646 1
    7163    12344    12346 1
    7164     9212     9214 1
    7165     7214     7216 1
    7166     7295     7297 1
    7167     7313     7315 1
    7168     6200     6202 1
    7169    11087    11089 1
    7170     5507     5509 1
    7171      600      605 1
    7172    10934    10935 1
    7173     2505     2510 1
    7174     6872     6874 1
    7175     9113     9115 1
    7176     5303     5304 1
    7177     8951     8953 1
    7178     7115     7117 1
    7179    11921    11923 1
    7180     8708     8710 1
    7181     2157     2158 1
    7182     2257     2258 1
    7183     2307     2308 1
    7184     2956     2957 1
    7185    10931    10933 1
    7186     6044     6046 1
    7187     1047     1046 1
    7188     4613     4614 1
    7189     4937     4938 1
    7190     3970     3971 1
    7191     2062     2063 1
    7192    11600    11602 1
    7193     7862     7863 1
    7194    10994    10995 1
    7195     6920     6921 1
    7196     9728     9729 1
    7197     8837     8838 1
    7198     5759     5760 1
    7199     4462     4463 1
    7200     5651     5652 1
    7201     8999     9000 1
    7202    11969    11970 1
    7203     9890     9891 1
    7204     3366     3367 1
    7205     3661     3662 1
    7206     5207     5208 1
    7207    11252    11253 1
    7208     1071     1072 1
    7209     1936     1937 1
    7210     3560     3561 1
    7211    11909    11910 1
    7212     3616     3614 1
    7213     6563     6565 1
    7214     8642     8644 1
    7215     1642     1643 1
    7216     7826     7828 1
    7217    10256    10258 1
    7218     3567     3568 1
    7219     6446     6448 1
    7220     9041     9043 1
    7221     8879     8881 1
    7222     5636     5638 1
    7223     7664     7666 1
    7224    12173    12175 1
    7225     1076     1077 1
    7226      462      463 1
    7227      895      896 1
    7228      632      630 1
    7229     9587     9588 1
    7230     1224     1226 1
    7231       51       50 1
    7232     3886     3887 1
    7233     3722     3724 1
    7234     6500     6501 1
    7235     4862     4864 1
    7236     7298     7300 1
    7237     4931     4932 1
    7238     6866     6868 1
    7239     9107     9109 1
    7240    10079    10081 1
    7241     9998    10000 1
    7242    11915    11917 1
    7243     9917     9919 1
    7244     8702     8704 1
    7245     8945     8947 1
    7246     7109     7111 1
    7247     3351     3352 1
    7248     1267     1266 1
    7249     3031     3032 1
    7250     3458     3459 1
    7251     2962     2963 1
    7252       23       24 1
    7253     1615     1616 1
    7254     3835     3834 1
    7255      961      962 1
    7256      360      361 1
    7257     2890     2891 1
    7258     2961     2962 1
    7259     5486     5487 1
    7260    11696    11697 1
    7261     3821     3822 1
    7262     4820     4822 1
    7263     7304     7305 1
    7264     1308     1309 1
    7265     2078     2079 1
    7266     1931     1932 1
    7267     1772     1773 1
    7268     9533     9534 1
    7269      466      445 1
    7270    10424    10426 1
    7271     6887     6889 1
    7272    11936    11938 1
    7273    10019    10021 1
    7274     9128     9130 1
    7275     8966     8968 1
    7276      426      427 1
    7277    10586    10588 1
    7278      778      777 1
    7279     9371     9373 1
    7280      211      212 1
    7281    10853    10854 1
    7282     3514     3515 1
    7283     5006     5008 1
    7284     5060     5062 1
    7285     8894     8896 1
    7286     4600     4601 1
    7287     7418     7419 1
    7288     6419     6420 1
    7289     2992     2993 1
    7290    11225    11226 1
    7291     5177     5178 1
    7292    11387    11388 1
    7293     9416     9417 1
    7294    10226    10227 1
    7295    10631    10632 1
    7296     5245     5243 1
    7297    10213    10211 1
    7298     9241     9239 1
    7299     7577     7579 1
    7300    10709    10711 1
    7301     6740     6742 1
    7302     8657     8659 1
    7303     5984     5986 1
    7304    10547    10549 1
    7305     9710     9712 1
    7306    11627    11629 1
    7307    10034    10036 1
    7308     5969     5970 1
    7309     6050     6051 1
    7310    10937    10938 1
    7311     3546     3547 1
    7312     3248     3249 1
    7313     3460     3461 1
    7314      288      289 1
    7315    11435    11436 1
    7316     6476     6478 1
    7317    12119    12121 1
    7318     5312     5314 1
    7319     7283     7285 1
    7320    11258    11260 1
    7321     9332     9333 1
    7322    10466    10467 1
    7323     2397     2398 1
    7324     9089     9090 1
    7325     7496     7497 1
    7326    12302    12303 1
    7327     1857     1843 1
    7328     7172     7173 1
    7329     7253     7254 1
    7330     3802     3805 1
    7331     1749     1750 1
    7332     9842     9844 1
    7333     6953     6955 1
    7334     5792     5794 1
    7335     9680     9682 1
    7336    11840    11842 1
    7337     6710     6712 1
    7338     8789     8791 1
    7339     5711     5713 1
    7340     5630     5632 1
    7341     6791     6793 1
    7342     1571     1570 1
    7343     4308     4309 1
    7344     9740     9742 1
    7345     9011     9013 1
    7346    11981    11983 1
    7347     8849     8851 1
    7348     1811     1812 1
    7349     9389     9391 1
    7350     8282     8284 1
    7351     5771     5773 1
    7352     8444     8446 1
    7353     6932     6934 1
    7354     2120     2119 1
    7355      649      652 1
    7356      246      247 1
    7357      234      235 1
    7358     3840     3841 1
    7359     1640     1641 1
    7360     5147     5149 1
    7361     6065     6067 1
    7362     2002     2003 1
    7363     2152     2153 1
    7364      386      387 1
    7365     9236     9237 1
    7366     1794     1795 1
    7367    11549    11550 1
    7368     1003     1004 1
    7369     5978     5979 1
    7370     2987     2988 1
    7371     4360     4361 1
    7372     8458     8456 1
    7373     6379     6377 1
    7374     1240     1241 1
    7375    10418    10419 1
    7376    10769    10770 1
    7377     9554     9555 1
    7378     7799     7800 1
    7379     9365     9366 1
    7380     3350     3351 1
    7381     7610     7611 1
    7382    10580    10581 1
    7383    10607    10608 1
    7384     8255     8257 1
    7385    10493    10495 1
    7386     2782     2781 1
    7387     2103     2104 1
    7388     7733     7734 1
    7389    11783    11784 1
    7390     8813     8814 1
    7391       55       58 1
    7392      275      276 1
    7393     9866     9867 1
    7394     5573     5574 1
    7395     6896     6897 1
    7396     5735     5736 1
    7397     6689     6690 1
    7398     7565     7567 1
    7399     5297     5299 1
    7400     8213     8215 1
    7401     5054     5056 1
    7402     8135     8137 1
    7403     5393     5394 1
    7404     2239     2224 1
    7405      629      630 1
    7406     2862     2863 1
    7407     2004     2005 1
    7408    11003    11004 1
    7409     5411     5413 1
    7410     4056     4055 1
    7411       36       38 1
    7412     2500     2502 1
    7413     2756     2757 1
    7414     4036     4037 1
    7415     2918     2917 1
    7416     2030     2031 1
    7417     4074     4075 1
    7418     9992     9994 1
    7419      341      342 1
    7420     1969     1970 1
    7421     4014     4015 1
    7422    10421    10423 1
    7423    10325    10327 1
    7424      635      636 1
    7425     5225     5226 1
    7426     5144     5145 1
    7427     6305     6306 1
    7428    11273    11274 1
    7429     8141     8142 1
    7430     6467     6468 1
    7431     6224     6225 1
    7432    11192    11193 1
    7433     6062     6063 1
    7434    11030    11031 1
    7435     5264     5265 1
    7436     4817     4819 1
    7437     1374     1375 1
    7438     1595     1596 1
    7439     8543     8545 1
    7440     5384     5386 1
    7441    11675    11677 1
    7442     5465     5467 1
    7443     4823     4825 1
    7444    11594    11596 1
    7445     9758     9760 1
    7446    11513    11515 1
    7447     6545     6547 1
    7448     5546     5548 1
    7449     9620     9621 1
    7450     5083     5081 1
    7451     4697     4698 1
    7452     4400     4401 1
    7453     4316     4317 1
    7454        2        4 1
    7455     8900     8902 1
    7456     9173     9175 1
    7457     3677     3678 1
    7458     2715     2718 1
    7459     1907     1908 1
    7460     2288     2289 1
    7461     4203     4204 1
    7462     2094     2095 1
    7463      283      284 1
    7464       78       79 1
    7465     4432     4431 1
    7466     1473     1475 1
    7467     9524     9525 1
    7468     5108     5110 1
    7469     6269     6271 1
    7470     3612     3613 1
    7471    12221    12222 1
    7472    10127    10129 1
    7473     2649     2648 1
    7474     1276     1277 1
    7475     3849     3852 1
    7476      619      618 1
    7477     1045     1046 1
    7478     2660     2659 1
    7479     1623     1624 1
    7480     4417     4418 1
    7481     1201     1202 1
    7482     2182     2183 1
    7483      310      311 1
    7484      699      700 1
    7485     2387     2388 1
    7486     4233     4234 1
    7487     9248     9250 1
    7488     4238     4237 1
    7489     5138     5139 1
    7490     7973     7974 1
    7491     6218     6219 1
    7492     7730     7731 1
    7493     6461     6462 1
    7494     8135     8136 1
    7495     4234     4235 1
    7496    10781    10782 1
    7497     5219     5220 1
    7498     6299     6300 1
    7499     5369     5370 1
    7500     3688     3690 1
    7501     3709     3710 1
    7502     2772     2773 1
    7503     1077     1078 1
    7504     1365     1366 1
    7505     4498     4499 1
    7506    11822    11824 1
    7507     8366     8368 1
    7508     6773     6775 1
    7509     6368     6370 1
    7510      218      220 1
    7511     8690     8692 1
    7512    11498    11500 1
    7513     5288     5290 1
    7514    11579    11581 1
    7515     8528     8530 1
    7516     6878     6880 1
    7517     7229     7231 1
    7518     4309     4310 1
    7519     8957     8959 1
    7520    11948    11949 1
    7521     3467     3466 1
    7522       56       58 1
    7523     4997     4999 1
    7524    11963    11965 1
    7525     4529     4530 1
    7526     4145     4146 1
    7527     2945     2947 1
    7528     2291     2292 1
    7529      844      845 1
    7530     1581     1582 1
    7531     2240     2241 1
    7532     1249     1250 1
    7533     1358     1359 1
    7534     1744     1745 1
    7535     4703     4704 1
    7536     7862     7864 1
    7537     3005     3006 1
    7538    10994    10996 1
    7539     2572     2573 1
    7540     9863     9865 1
    7541    11969    11971 1
    7542     5651     5653 1
    7543     8999     9001 1
    7544     8837     8839 1
    7545     9782     9784 1
    7546     9728     9730 1
    7547     5759     5761 1
    7548     6920     6922 1
    7549     9890     9892 1
    7550    11204    11206 1
    7551     2874     2875 1
    7552     2813     2814 1
    7553     3022     3023 1
    7554      833      834 1
    7555     8114     8116 1
    7556     4640     4639 1
    7557     5096     5098 1
    7558     6935     6936 1
    7559     2526     2527 1
    7560     2117     2118 1
    7561     2264     2265 1
    7562     3387     3388 1
    7563     3175     3176 1
    7564     3596     3597 1
    7565     2527     2528 1
    7566     3390     3391 1
    7567      608      609 1
    7568     1895     1881 1
    7569    11399    11400 1
    7570     5189     5190 1
    7571    10481    10482 1
    7572     9593     9595 1
    7573     2227     2228 1
    7574     7310     7311 1
    7575     2249     2250 1
    7576     1352     1354 1
    7577     2505     2506 1
    7578     4196     4197 1
    7579     7940     7942 1
    7580     5942     5944 1
    7581     2416     2415 1
    7582     6845     6846 1
    7583    11732    11733 1
    7584     6737     6738 1
    7585     8654     8655 1
    7586     9707     9708 1
    7587    11624    11625 1
    7588     6104     6106 1
    7589    10139    10140 1
    7590     2534     2535 1
    7591     4340     4341 1
    7592     1818     1819 1
    7593     2115     2116 1
    7594     4961     4963 1
    7595     4637     4638 1
    7596     3412     3413 1
    7597     3833     3834 1
    7598     3409     3410 1
    7599     5924     5926 1
    7600     6086     6088 1
    7601     7922     7924 1
    7602     4044     4045 1
    7603    10892    10894 1
    7604     5390     5392 1
    7605      971      970 1
    7606     4366     4351 1
    7607     3478     3480 1
    7608     3869     3870 1
    7609     7010     7012 1
    7610     7334     7336 1
    7611    12059    12061 1
    7612     9467     9469 1
    7613     5849     5851 1
    7614     1916     1901 1
    7615     2484     2485 1
    7616    11897    11899 1
    7617     5687     5689 1
    7618     8237     8238 1
    7619     5321     5322 1
    7620    10370    10371 1
    7621     6365     6366 1
    7622    10532    10533 1
    7623     9614     9615 1
    7624     4560     4561 1
    7625     7400     7401 1
    7626     8315     8316 1
    7627     2907     2908 1
    7628     3767     3768 1
    7629     2689     2690 1
    7630     3976     3977 1
    7631     1041     1043 1
    7632      931      932 1
    7633       66       67 1
    7634    11696    11698 1
    7635     5486     5488 1
    7636      963      964 1
    7637      656      657 1
    7638     9560     9562 1
    7639    10613    10615 1
    7640     9152     9154 1
    7641    11681    11682 1
    7642     9764     9765 1
    7643     6551     6552 1
    7644     8549     8550 1
    7645    11519    11520 1
    7646    11357    11358 1
    7647     8387     8388 1
    7648     5552     5553 1
    7649     5471     5472 1
    7650     6632     6633 1
    7651    11309    11311 1
    7652    11468    11470 1
    7653        8       11 1
    7654     5381     5383 1
    7655     6176     6178 1
    7656     2992     2994 1
    7657     7418     7420 1
    7658    11225    11227 1
    7659     5177     5179 1
    7660    11387    11389 1
    7661     9416     9418 1
    7662    10226    10228 1
    7663    10631    10633 1
    7664     6257     6259 1
    7665     2544     2545 1
    7666      160      161 1
    7667     3559     3560 1
    7668     3488     3489 1
    7669      332      335 1
    7670      454      455 1
    7671      139      140 1
    7672      723      724 1
    7673     1482     1483 1
    7674     2376     2377 1
    7675     7364     7366 1
    7676     4666     4667 1
    7677     4135     4136 1
    7678      795      796 1
    7679     3693     3698 1
    7680      180      181 1
    7681      625      626 1
    7682     1313     1314 1
    7683    12146    12147 1
    7684     9176     9177 1
    7685     7097     7098 1
    7686    10067    10068 1
    7687     7016     7017 1
    7688      576      578 1
    7689     5855     5856 1
    7690     1232     1233 1
    7691     3214     3215 1
    7692     1453     1454 1
    7693     3657     3658 1
    7694     9605     9606 1
    7695     1797     1798 1
    7696     2594     2595 1
    7697     2815     2816 1
    7698     4346     4347 1
    7699      116      117 1
    7700     9527     9529 1
    7701     1390     1391 1
    7702     2559     2564 1
    7703     9530     9532 1
    7704     1377     1376 1
    7705     2746     2745 1
    7706    12002    12004 1
    7707    10739    10741 1
    7708     1230     1229 1
    7709     6848     6849 1
    7710     2980     2981 1
    7711     3600     3601 1
    7712     3398     3399 1
    7713     7916     7917 1
    7714     8996     8997 1
    7715     1953     1954 1
    7716     2323     2324 1
    7717      703      706 1
    7718    11426    11427 1
    7719     9941     9942 1
    7720     9590     9591 1
    7721    10886    10887 1
    7722    12158    12160 1
    7723     2092     2093 1
    7724    11747    11749 1
    7725     5150     5151 1
    7726     7607     7608 1
    7727     1856     1857 1
    7728      692      693 1
    7729     1346     1347 1
    7730    11315    11316 1
    7731    10610    10612 1
    7732     4883     4885 1
    7733     9194     9195 1
    7734    12326    12327 1
    7735     7196     7197 1
    7736     4835     4836 1
    7737     3430     3431 1
    7738     7439     7440 1
    7739    12245    12246 1
    7740     9275     9276 1
    7741     7277     7278 1
    7742     2048     2049 1
    7743     3624     3625 1
    7744    11012    11014 1
    7745     3959     3960 1
    7746     2431     2432 1
    7747     4222     4223 1
    7748      264      265 1
    7749    11867    11869 1
    7750     3751     3746 1
    7751     4244     4245 1
    7752     2935     2936 1
    7753     1023     1024 1
    7754      363      364 1
    7755     4553     4554 1
    7756     4097     4098 1
    7757     3663     3662 1
    7758    11157    11156 1
    7759     9888     9887 1
    7760     4085     4086 1
    7761     3774     3775 1
    7762     1675     1678 1
    7763     4260     4261 1
    7764      639      640 1
    7765     1717     1718 1
    7766     4949     4951 1
    7767     7397     7399 1
    7768     2247     2248 1
    7769     2331     2332 1
    7770      376      377 1
    7771     2996     2997 1
    7772     1060     1061 1
    7773      754      755 1
    7774     4580     4581 1
    7775     9974     9976 1
    7776      544      543 1
    7777     5678     5679 1
    7778     2563     2558 1
    7779     1989     1990 1
    7780     5225     5227 1
    7781     5144     5146 1
    7782     6305     6307 1
    7783     8141     8143 1
    7784    11273    11275 1
    7785     6467     6469 1
    7786    11192    11194 1
    7787     6224     6226 1
    7788     6062     6064 1
    7789    11030    11032 1
    7790     5477     5479 1
    7791     1562     1563 1
    7792     1883     1884 1
    7793      687      688 1
    7794      254      255 1
    7795      846      848 1
    7796     1879     1880 1
    7797    10184    10185 1
    7798     9050     9051 1
    7799     4469     4468 1
    7800    10130    10131 1
    7801    10265    10266 1
    7802    12101    12102 1
    7803     1257     1258 1
    7804     5594     5595 1
    7805     6080     6081 1
    7806     3909     3910 1
    7807     5057     5058 1
    7808    11105    11106 1
    7809    10862    10863 1
    7810     6137     6138 1
    7811     8054     8055 1
    7812     7892     7893 1
    7813     4976     4977 1
    7814     3870     3871 1
    7815     1774     1775 1
    7816     3437     3438 1
    7817     5612     5613 1
    7818      259      260 1
    7819      535      536 1
    7820     1170     1171 1
    7821     8987     8989 1
    7822     6152     6154 1
    7823     8069     8071 1
    7824    10040    10042 1
    7825     4003     4004 1
    7826    10877    10879 1
    7827      797      798 1
    7828     1457     1458 1
    7829     7070     7072 1
    7830     1116     1118 1
    7831     1715     1716 1
    7832     2614     2617 1
    7833     2582     2583 1
    7834      220      221 1
    7835     2252     2253 1
    7836      146      147 1
    7837      591      592 1
    7838    10223    10225 1
    7839     7598     7600 1
    7840     6218     6220 1
    7841     7730     7732 1
    7842     5138     5140 1
    7843     6461     6463 1
    7844    11267    11269 1
    7845     6056     6058 1
    7846     5894     5896 1
    7847    10781    10783 1
    7848     5219     5221 1
    7849     8297     8299 1
    7850     5582     5584 1
    7851     8822     8824 1
    7852     3348     3349 1
    7853     3781     3782 1
    7854     2494     2495 1
    7855     2208     2209 1
    7856     6128     6130 1
    7857      596      598 1
    7858    12269    12270 1
    7859      185      186 1
    7860     1192     1193 1
    7861      217      220 1
    7862     3775     3776 1
    7863    10574    10575 1
    7864      537      538 1
    7865     7127     7129 1
    7866    10691    10693 1
    7867     4049     4050 1
    7868     2958     2959 1
    7869     4421     4407 1
    7870     8027     8029 1
    7871    10910    10912 1
    7872     1960     1961 1
    7873    11765    11766 1
    7874     3285     3286 1
    7875     4403     4404 1
    7876     3285     3284 1
    7877     3073     3074 1
    7878      729      730 1
    7879      296      297 1
    7880     3311     3312 1
    7881     2433     2434 1
    7882    11756    11758 1
    7883     4423     4424 1
    7884     6788     6790 1
    7885      343      344 1
    7886     9839     9841 1
    7887     5708     5710 1
    7888     6707     6709 1
    7889     8786     8788 1
    7890    11837    11839 1
    7891     3856     3858 1
    7892     8782     8780 1
    7893     1712     1713 1
    7894     1721     1722 1
    7895     2144     2145 1
    7896     3448     3449 1
    7897     9359     9361 1
    7898     7928     7930 1
    7899     9440     9442 1
    7900    10574    10576 1
    7901    10412    10414 1
    7902     3003     3004 1
    7903     5930     5932 1
    7904     2579     2580 1
    7905     7604     7606 1
    7906     4916     4917 1
    7907     3680     3681 1
    7908     2904     2905 1
    7909     3325     3326 1
    7910      169      174 1
    7911     3116     3117 1
    7912      200      201 1
    7913     1726     1727 1
    7914     4362     4363 1
    7915     3711     3712 1
    7916     1369     1370 1
    7917      297      298 1
    7918     9497     9498 1
    7919     8165     8167 1
    7920      663      665 1
    7921     5189     5191 1
    7922    11399    11401 1
    7923    10481    10483 1
    7924     1304     1305 1
    7925     5588     5590 1
    7926     6146     6147 1
    7927     7064     7065 1
    7928     5309     5310 1
    7929     8225     8226 1
    7930     4985     4986 1
    7931    10520    10521 1
    7932    10358    10359 1
    7933     1758     1759 1
    7934     3126     3105 1
    7935     8963     8964 1
    7936    10946    10947 1
    7937     6845     6847 1
    7938     9707     9709 1
    7939     6737     6739 1
    7940    11732    11734 1
    7941    11078    11079 1
    7942     8762     8764 1
    7943     8654     8656 1
    7944     3018     3019 1
    7945    11624    11626 1
    7946    10139    10141 1
    7947     1263     1264 1
    7948     1362     1363 1
    7949     4411     4412 1
    7950      175      176 1
    7951     4536     4537 1
    7952     1964     1965 1
    7953     3863     3864 1
    7954     2012     2013 1
    7955     1580     1581 1
    7956     8300     8301 1
    7957     3807     3808 1
    7958      491      492 1
    7959      203      202 1
    7960     1004     1005 1
    7961      474      475 1
    7962     1685     1680 1
    7963     4592     4578 1
    7964     3637     3636 1
    7965     1358     1361 1
    7966     2968     2966 1
    7967     4300     4301 1
    7968     1664     1665 1
    7969    11158    11156 1
    7970     1231     1232 1
    7971     1101     1102 1
    7972     9635     9636 1
    7973     5126     5127 1
    7974     8042     8043 1
    7975     6125     6126 1
    7976     3862     3863 1
    7977     5045     5046 1
    7978     8744     8745 1
    7979     8582     8583 1
    7980     6206     6207 1
    7981     9797     9798 1
    7982     7809     7808 1
    7983     5987     5989 1
    7984     2820     2821 1
    7985     8609     8610 1
    7986     1465     1470 1
    7987     1692     1693 1
    7988     1698     1699 1
    7989     4067     4068 1
    7990     5528     5529 1
    7991    10253    10254 1
    7992     2085     2071 1
    7993     6644     6645 1
    7994     3164     3163 1
    7995     2955     2954 1
    7996       57       58 1
    7997     2106     2091 1
    7998     5201     5202 1
    7999     3198     3199 1
    8000     2550     2551 1
    8001    11912    11913 1
    8002     6026     6027 1
    8003     1637     1638 1
    8004     2914     2915 1
    8005      221      222 1
    8006     2309     2310 1
    8007      331      332 1
    8008     3058     3059 1
    8009     3491     3492 1
    8010     4670     4655 1
    8011     1218     1219 1
    8012    10811    10813 1
    8013     7760     7762 1
    8014     3208     3210 1
    8015    10730    10732 1
    8016     7679     7681 1
    8017     7517     7519 1
    8018    10649    10651 1
    8019     9515     9517 1
    8020     8936     8937 1
    8021      828      829 1
    8022      416      417 1
    8023     1040     1041 1
    8024     4550     4551 1
    8025    10523    10524 1
    8026     4182     4183 1
    8027       25       26 1
    8028     2282     2283 1
    8029     2135     2136 1
    8030     3242     3243 1
    8031     8996     8998 1
    8032    11426    11428 1
    8033    10886    10888 1
    8034     6890     6892 1
    8035     9590     9592 1
    8036     9941     9943 1
    8037     7916     7918 1
    8038      771      773 1
    8039     8915     8917 1
    8040     1137     1138 1
    8041     9773     9774 1
    8042     7196     7198 1
    8043     4835     4837 1
    8044    12326    12328 1
    8045     9194     9196 1
    8046     1736     1737 1
    8047    11432    11433 1
    8048     9275     9277 1
    8049     7439     7441 1
    8050    12245    12247 1
    8051     8111     8112 1
    8052     2856     2857 1
    8053     2083     2082 1
    8054     9602     9603 1
    8055     1123     1124 1
    8056     9800     9801 1
    8057     8585     8586 1
    8058     5669     5670 1
    8059     8747     8748 1
    8060     9638     9639 1
    8061    11555    11556 1
    8062     2212     2213 1
    8063     3837     3838 1
    8064     7394     7396 1
    8065      973      976 1
    8066     4524     4525 1
    8067    11051    11052 1
    8068     7325     7326 1
    8069     7001     7002 1
    8070     8243     8244 1
    8071     8081     8082 1
    8072      789      788 1
    8073     5840     5841 1
    8074     6002     6003 1
    8075    12050    12051 1
    8076    11888    11889 1
    8077      520      499 1
    8078      268      269 1
    8079     2538     2537 1
    8080     2628     2629 1
    8081     3706     3707 1
    8082     5642     5643 1
    8083     7658     7660 1
    8084     1628     1631 1
    8085    10013    10015 1
    8086     6881     6883 1
    8087     9473     9475 1
    8088     1648     1649 1
    8089    11930    11932 1
    8090     9122     9124 1
    8091     8960     8962 1
    8092     7556     7558 1
    8093    11540    11541 1
    8094    10688    10690 1
    8095      906      907 1
    8096     1127     1128 1
    8097      694      695 1
    8098    11027    11029 1
    8099      671      672 1
    8100     9656     9658 1
    8101     1644     1645 1
    8102     1435     1436 1
    8103    10742    10743 1
    8104    11195    11196 1
    8105     4128     4129 1
    8106     6308     6309 1
    8107     1790     1791 1
    8108     1874     1875 1
    8109     2015     2016 1
    8110     1868     1869 1
    8111     1355     1356 1
    8112     3887     3888 1
    8113    10307    10308 1
    8114     9050     9052 1
    8115    10130    10132 1
    8116    10184    10186 1
    8117    12101    12103 1
    8118    10265    10267 1
    8119     5594     5596 1
    8120     4910     4912 1
    8121      926      928 1
    8122     1614     1615 1
    8123     6080     6082 1
    8124     6185     6187 1
    8125     7571     7573 1
    8126     8054     8056 1
    8127    11105    11107 1
    8128    10862    10864 1
    8129     8651     8653 1
    8130     6137     6139 1
    8131     7892     7894 1
    8132     4976     4978 1
    8133     5057     5059 1
    8134     1247     1248 1
    8135     4946     4947 1
    8136     3455     3456 1
    8137     2592     2593 1
    8138     4176     4177 1
    8139      188      189 1
    8140    11306    11308 1
    8141      109      112 1
    8142     1999     1998 1
    8143     3917     3919 1
    8144      135      136 1
    8145     1606     1607 1
    8146     4269     4255 1
    8147    10589    10590 1
    8148      123      124 1
    8149     4046     4047 1
    8150    10343    10344 1
    8151    10088    10090 1
    8152     4898     4900 1
    8153      509      508 1
    8154     2786     2787 1
    8155     3225     3226 1
    8156     9584     9586 1
    8157     7211     7213 1
    8158    12260    12262 1
    8159     9479     9481 1
    8160    10490    10491 1
    8161     9437     9438 1
    8162     9356     9357 1
    8163    10571    10572 1
    8164    10409    10410 1
    8165     7562     7564 1
    8166     9290     9292 1
    8167     7601     7602 1
    8168     7358     7359 1
    8169     1806     1807 1
    8170     4364     4350 1
    8171     1502     1503 1
    8172     3721     3722 1
    8173     4769     4771 1
    8174     1448     1449 1
    8175     2707     2708 1
    8176      954      956 1
    8177     7810     7808 1
    8178     3634     3636 1
    8179     9413     9415 1
    8180     6335     6337 1
    8181     6659     6661 1
    8182     6497     6499 1
    8183     8414     8416 1
    8184     9251     9253 1
    8185     2920     2921 1
    8186     5336     5338 1
    8187     3660     3661 1
    8188    10628    10630 1
    8189     8291     8292 1
    8190    11531    11532 1
    8191    11261    11262 1
    8192     6563     6564 1
    8193     8372     8373 1
    8194     8399     8400 1
    8195     5483     5484 1
    8196     5294     5295 1
    8197     2658     2659 1
    8198     4590     4589 1
    8199     4638     4639 1
    8200     4344     4345 1
    8201     6905     6906 1
    8202       31       32 1
    8203     4509     4510 1
    8204     1154     1155 1
    8205     5015     5016 1
    8206      536      537 1
    8207      957      958 1
    8208     2133     2132 1
    8209     2344     2347 1
    8210      501      503 1
    8211     8612     8614 1
    8212    10817    10818 1
    8213     7685     7686 1
    8214    10736    10737 1
    8215     7523     7524 1
    8216     9521     9522 1
    8217    11606    11607 1
    8218    10655    10656 1
    8219     7766     7767 1
    8220     3940     3941 1
    8221     1041     1042 1
    8222     3177     3178 1
    8223     1493     1494 1
    8224     4336     4337 1
    8225     4339     4340 1
    8226     5372     5373 1
    8227     1324     1325 1
    8228      670      671 1
    8229     8240     8241 1
    8230     1951     1952 1
    8231     1621     1624 1
    8232     1867     1868 1
    8233     2087     2088 1
    8234     3322     3321 1
    8235     5795     5796 1
    8236     6899     6900 1
    8237     6965     6966 1
    8238      305      306 1
    8239     1295     1296 1
    8240     1286     1287 1
    8241      753      754 1
    8242     1613     1614 1
    8243      308      309 1
    8244      792      794 1
    8245     1442     1443 1
    8246     4510     4511 1
    8247     1240     1239 1
    8248     6865     6863 1
    8249     8944     8942 1
    8250     1449     1450 1
    8251     1486     1487 1
    8252     1282     1283 1
    8253    11039    11040 1
    8254     9149     9150 1
    8255     5585     5586 1
    8256     6908     6909 1
    8257     6476     6477 1
    8258     7745     7746 1
    8259     6314     6315 1
    8260     7232     7233 1
    8261     9878     9879 1
    8262    10202    10203 1
    8263     4142     4143 1
    8264     4610     4611 1
    8265     2585     2584 1
    8266      920      922 1
    8267     7361     7363 1
    8268      679      678 1
    8269      222      227 1
    8270     2125     2126 1
    8271     2100     2101 1
    8272     1784     1785 1
    8273      586      587 1
    8274     4076     4077 1
    8275     2790     2791 1
    8276       41       42 1
    8277     2675     2676 1
    8278     4595     4596 1
    8279     4367     4368 1
    8280     3207     3212 1
    8281     1781     1767 1
    8282     3248     3247 1
    8283     1574     1577 1
    8284     1854     1855 1
    8285     2001     2002 1
    8286     1891     1892 1
    8287     1397     1398 1
    8288     2894     2895 1
    8289     4709     4710 1
    8290     2519     2520 1
    8291     8537     8538 1
    8292     3382     3383 1
    8293     6620     6621 1
    8294     6941     6943 1
    8295      998      999 1
    8296     1966     1967 1
    8297     6617     6618 1
    8298     1249     1254 1
    8299     1470     1471 1
    8300     2657     2658 1
    8301     1230     1231 1
    8302     4399     4400 1
    8303     4315     4316 1
    8304     9782     9783 1
    8305     7324     7322 1
    8306      597      598 1
    8307     8620     8618 1
    8308     9716     9717 1
    8309     3450     3429 1
    8310     2499     2502 1
    8311     1531     1532 1
    8312     3640     3643 1
    8313     2605     2606 1
    8314     9308     9309 1
    8315     4338     4339 1
    8316     4191     4192 1
    8317     7289     7290 1
    8318     7694     7695 1
    8319    12176    12177 1
    8320     2821     2822 1
    8321    11729    11730 1
    8322     1311     1313 1
    8323     8921     8922 1
    8324     6026     6028 1
    8325    11912    11914 1
    8326     2068     2053 1
    8327       88       67 1
    8328     6641     6642 1
    8329     8183     8185 1
    8330     3482     3483 1
    8331    12266    12267 1
    8332    11561    11562 1
    8333     4642     4643 1
    8334     4111     4112 1
    8335     1185     1186 1
    8336     1892     1893 1
    8337     2267     2266 1
    8338     4904     4905 1
    8339     1831     1832 1
    8340     2287     2288 1
    8341     5945     5946 1
    8342     6131     6132 1
    8343     9914     9915 1
    8344      706      707 1
    8345    10511    10512 1
    8346     9026     9027 1
    8347    11996    11997 1
    8348    10160    10161 1
    8349    10430    10431 1
    8350     9296     9297 1
    8351     5867     5868 1
    8352    12077    12078 1
    8353    10349    10350 1
    8354    10322    10323 1
    8355     5639     5640 1
    8356      686      687 1
    8357     9629     9631 1
    8358     1462     1463 1
    8359     2891     2892 1
    8360     2458     2459 1
    8361     4775     4776 1
    8362     2912     2913 1
    8363     2869     2870 1
    8364     5936     5938 1
    8365     7934     7936 1
    8366     6098     6100 1
    8367    10904    10906 1
    8368      241      242 1
    8369     3982     3981 1
    8370      251      250 1
    8371     4229     4230 1
    8372    10536    10535 1
    8373     2449     2450 1
    8374     2590     2591 1
    8375     3035     3036 1
    8376     3920     3921 1
    8377    10487    10488 1
    8378    10568    10569 1
    8379     9353     9354 1
    8380     2327     2328 1
    8381    10406    10407 1
    8382     5669     5671 1
    8383     9800     9802 1
    8384     8585     8587 1
    8385     8747     8749 1
    8386     9434     9435 1
    8387     9638     9640 1
    8388    11555    11557 1
    8389     2243     2244 1
    8390     4886     4888 1
    8391     3720     3699 1
    8392     8243     8245 1
    8393    11051    11053 1
    8394     7325     7327 1
    8395     7001     7003 1
    8396     8081     8083 1
    8397     5840     5842 1
    8398     6002     6004 1
    8399    12050    12052 1
    8400    11888    11890 1
    8401     5678     5680 1
    8402     2668     2669 1
    8403     2830     2831 1
    8404     2556     2557 1
    8405     3676     3677 1
    8406      191      192 1
    8407     5036     5038 1
    8408     2529     2530 1
    8409     2950     2951 1
    8410     8006     8008 1
    8411     1967     1968 1
    8412      717      719 1
    8413     4335     4334 1
    8414     2528     2529 1
    8415     9185     9186 1
    8416     8186     8187 1
    8417     2038     2039 1
    8418    12218    12220 1
    8419     3046     3049 1
    8420     4459     4445 1
    8421    12116    12117 1
    8422     2225     2226 1
    8423     1373     1374 1
    8424     1588     1589 1
    8425     2835     2836 1
    8426     1217     1216 1
    8427     4328     4313 1
    8428     3947     3948 1
    8429     1589     1590 1
    8430     4556     4541 1
    8431     4703     4705 1
    8432      726      727 1
    8433     3436     3437 1
    8434     8873     8875 1
    8435     9548     9550 1
    8436     2699     2700 1
    8437     7793     7795 1
    8438    10763    10765 1
    8439     5892     5891 1
    8440    12005    12007 1
    8441     9035     9037 1
    8442     2327     2326 1
    8443     2180     2179 1
    8444      845      846 1
    8445     6509     6510 1
    8446     9425     9426 1
    8447    10046    10047 1
    8448     8993     8994 1
    8449     6158     6159 1
    8450     6671     6672 1
    8451     6347     6348 1
    8452     8426     8427 1
    8453     8075     8076 1
    8454    10640    10641 1
    8455     9515     9516 1
    8456     4531     4532 1
    8457     3681     3682 1
    8458     1584     1585 1
    8459      724      725 1
    8460    10589    10591 1
    8461     4676     4677 1
    8462     8555     8556 1
    8463    10571    10573 1
    8464     9356     9358 1
    8465     9437     9439 1
    8466    10490    10492 1
    8467    10409    10411 1
    8468     7601     7603 1
    8469     7358     7360 1
    8470    11708    11710 1
    8471     4551     4552 1
    8472     9179     9180 1
    8473     7100     7101 1
    8474    12149    12150 1
    8475    10070    10071 1
    8476     4035     4036 1
    8477     6668     6669 1
    8478     6506     6507 1
    8479     8423     8424 1
    8480     6344     6345 1
    8481    11852    11853 1
    8482     1088     1089 1
    8483      894      895 1
    8484     6032     6033 1
    8485     1315     1316 1
    8486     2329     2330 1
    8487     4149     4150 1
    8488      178      177 1
    8489     3266     3267 1
    8490     1552     1553 1
    8491      480      481 1
    8492    11018    11019 1
    8493     8219     8221 1
    8494     9632     9633 1
    8495     5801     5803 1
    8496     5369     5371 1
    8497     4534     4535 1
    8498     4171     4172 1
    8499     4585     4586 1
    8500     5731     5729 1
    8501     5441     5442 1
    8502     1697     1698 1
    8503    11228    11229 1
    8504    11390    11391 1
    8505     6179     6180 1
    8506     6260     6261 1
    8507     5180     5181 1
    8508    11309    11310 1
    8509     6422     6423 1
    8510     5018     5019 1
    8511     5099     5100 1
    8512     5568     5567 1
    8513     3889     3890 1
    8514        1        4 1
    8515     6695     6696 1
    8516     1704     1705 1
    8517     1050     1051 1
    8518      623      624 1
    8519     4359     4360 1
    8520     9164     9165 1
    8521     7625     7626 1
    8522     7463     7464 1
    8523    10055    10056 1
    8524     7085     7086 1
    8525    12134    12135 1
    8526     2603     2604 1
    8527     7907     7908 1
    8528     8240     8242 1
    8529     1172     1173 1
    8530     4277     4278 1
    8531      137      138 1
    8532     3744     3745 1
    8533     7184     7186 1
    8534     1605     1606 1
    8535     1608     1609 1
    8536     3131     3132 1
    8537     3100     3101 1
    8538     4516     4502 1
    8539      879      881 1
    8540     2522     2523 1
    8541     6935     6937 1
    8542    10160    10162 1
    8543     7379     7381 1
    8544     2258     2259 1
    8545     4605     4606 1
    8546     2149     2150 1
    8547     1852     1853 1
    8548    10766    10767 1
    8549    11198    11199 1
    8550     6311     6312 1
    8551     1847     1848 1
    8552     2912     2914 1
    8553      856      857 1
    8554     7520     7521 1
    8555    10814    10815 1
    8556      978      983 1
    8557     7682     7683 1
    8558     9518     9519 1
    8559    10652    10653 1
    8560    10733    10734 1
    8561     7763     7764 1
    8562      672      673 1
    8563     2297     2298 1
    8564     3423     3428 1
    8565     4012     4014 1
    8566     9947     9949 1
    8567     2495     2496 1
    8568     5816     5818 1
    8569       92       93 1
    8570     7976     7978 1
    8571    11864    11866 1
    8572     5897     5899 1
    8573    11702    11704 1
    8574     5492     5494 1
    8575    10784    10786 1
    8576    10537    10535 1
    8577     3571     3572 1
    8578     5627     5628 1
    8579      911      910 1
    8580     8133     8132 1
    8581     6216     6215 1
    8582     2817     2818 1
    8583      224      227 1
    8584     6626     6628 1
    8585      609      611 1
    8586     8537     8539 1
    8587     6620     6622 1
    8588    10304    10305 1
    8589     2217     2216 1
    8590     9683     9685 1
    8591     2899     2900 1
    8592     6119     6121 1
    8593     3731     3732 1
    8594     3937     3938 1
    8595     7175     7177 1
    8596     4805     4807 1
    8597     8063     8064 1
    8598     2661     2664 1
    8599     2195     2196 1
    8600      472      473 1
    8601     5318     5319 1
    8602    11447    11448 1
    8603     9611     9612 1
    8604     8234     8235 1
    8605     8477     8478 1
    8606     9512     9513 1
    8607     6398     6399 1
    8608     1759     1760 1
    8609     1109     1110 1
    8610      455      456 1
    8611     1533     1534 1
    8612     9641     9642 1
    8613     4452     4453 1
    8614     9188     9189 1
    8615     7676     7677 1
    8616    10646    10647 1
    8617    10727    10728 1
    8618     7757     7758 1
    8619     7514     7515 1
    8620    10808    10809 1
    8621     7433     7434 1
    8622     7271     7272 1
    8623    12239    12240 1
    8624     1771     1772 1
    8625      513      514 1
    8626     1713     1714 1
    8627     1725     1726 1
    8628      598      599 1
    8629     2143     2144 1
    8630     3620     3621 1
    8631     8210     8212 1
    8632      567      568 1
    8633     2220     2205 1
    8634     3726     3725 1
    8635      991      992 1
    8636     6716     6718 1
    8637     1015     1016 1
    8638     5366     5368 1
    8639     9146     9148 1
    8640     1124     1125 1
    8641     4537     4538 1
    8642     2612     2617 1
    8643     1633     1634 1
    8644     3141     3142 1
    8645     9008     9010 1
    8646    11339    11340 1
    8647     3267     3268 1
    8648      150      151 1
    8649     9704     9705 1
    8650     7571     7572 1
    8651    11621    11622 1
    8652    10541    10542 1
    8653     4078     4079 1
    8654    10703    10704 1
    8655     2102     2103 1
    8656      710      711 1
    8657     2250     2251 1
    8658      933      934 1
    8659     2018     2019 1
    8660     7067     7068 1
    8661     3452     3453 1
    8662     5945     5947 1
    8663     3008     3009 1
    8664     9914     9916 1
    8665    11255    11257 1
    8666     3217     3218 1
    8667     8285     8287 1
    8668     2933     2934 1
    8669    11621    11623 1
    8670    10511    10513 1
    8671    12077    12079 1
    8672     5867     5869 1
    8673     9296     9298 1
    8674     9026     9028 1
    8675    10430    10432 1
    8676     9377     9379 1
    8677    10349    10351 1
    8678      273      274 1
    8679    10322    10324 1
    8680     2809     2808 1
    8681     1962     1961 1
    8682     4138     4139 1
    8683     3246     3247 1
    8684     2560     2563 1
    8685     1224     1225 1
    8686    10421    10422 1
    8687     2959     2960 1
    8688      525      526 1
    8689     2960     2961 1
    8690     3608     3609 1
    8691     7889     7890 1
    8692     2511     2512 1
    8693      151      152 1
    8694     3694     3697 1
    8695     3876     3877 1
    8696     2580     2581 1
    8697     5447     5448 1
    8698    10091    10092 1
    8699     9344     9345 1
    8700      552      553 1
    8701     8750     8752 1
    8702     9722     9724 1
    8703    11639    11641 1
    8704     5672     5674 1
    8705     5306     5307 1
    8706     8129     8131 1
    8707     8465     8466 1
    8708     6752     6754 1
    8709     9803     9805 1
    8710     8669     8671 1
    8711    11165    11166 1
    8712     6278     6279 1
    8713     6116     6117 1
    8714     1887     1888 1
    8715     4017     4018 1
    8716     1499     1500 1
    8717     2356     2357 1
    8718     3517     3518 1
    8719     3084     3085 1
    8720     4745     4747 1
    8721     3730     3731 1
    8722     8030     8032 1
    8723     5303     5305 1
    8724     8462     8464 1
    8725     5852     5853 1
    8726    12062    12063 1
    8727     7013     7014 1
    8728     9794     9795 1
    8729     8741     8742 1
    8730     6194     6196 1
    8731    11081    11083 1
    8732     8579     8580 1
    8733     7337     7338 1
    8734     5663     5664 1
    8735      166      163 1
    8736     1245     1246 1
    8737     2696     2697 1
    8738     2201     2186 1
    8739      716      715 1
    8740    11330    11332 1
    8741     8441     8443 1
    8742     8360     8362 1
    8743    11492    11494 1
    8744     3998     3999 1
    8745     6362     6364 1
    8746     8198     8200 1
    8747     5282     5284 1
    8748     8279     8281 1
    8749    11249    11251 1
    8750     9047     9048 1
    8751     8885     8886 1
    8752     7832     7833 1
    8753    10262    10263 1
    8754     5504     5505 1
    8755     4572     4573 1
    8756     7670     7671 1
    8757    12179    12180 1
    8758    12017    12018 1
    8759     1740     1741 1
    8760     3328     3329 1
    8761     2462     2463 1
    8762      574      575 1
    8763     1075     1076 1
    8764     1762     1748 1
    8765     3496     3497 1
    8766     1863     1864 1
    8767     3113     3114 1
    8768     2619     2620 1
    8769     1947     1948 1
    8770    11558    11560 1
    8771        6       11 1
    8772     1163     1164 1
    8773      509      510 1
    8774     2937     2938 1
    8775       47       48 1
    8776     9185     9187 1
    8777     8186     8188 1
    8778     4099     4100 1
    8779    11045    11047 1
    8780     3765     3766 1
    8781     4928     4930 1
    8782     4402     4388 1
    8783    11441    11443 1
    8784     5534     5536 1
    8785     5822     5823 1
    8786     2931     2934 1
    8787     7982     7983 1
    8788     6821     6822 1
    8789     5498     5499 1
    8790     2275     2261 1
    8791     5903     5904 1
    8792    10952    10953 1
    8793    11864    11865 1
    8794     9953     9954 1
    8795     9935     9936 1
    8796     2937     2942 1
    8797     2834     2835 1
    8798     6950     6952 1
    8799     6380     6381 1
    8800     4018     4021 1
    8801     3213     3214 1
    8802     3987     3988 1
    8803     2461     2462 1
    8804     9692     9693 1
    8805    10172    10174 1
    8806     1578     1579 1
    8807     3532     3533 1
    8808     1434     1435 1
    8809     5240     5241 1
    8810     2879     2880 1
    8811     3500     3501 1
    8812      278      279 1
    8813     1292     1293 1
    8814      980      983 1
    8815       62       65 1
    8816     3405     3406 1
    8817     1183     1184 1
    8818     2990     2995 1
    8819     4943     4944 1
    8820     5612     5614 1
    8821     4465     4466 1
    8822     4390     4391 1
    8823     7715     7717 1
    8824     4210     4211 1
    8825     1455     1456 1
    8826      368      369 1
    8827     1483     1484 1
    8828     1288     1289 1
    8829      886      887 1
    8830       84       85 1
    8831     1220     1221 1
    8832     4382     4383 1
    8833     3277     3278 1
    8834     3931     3932 1
    8835     2623     2624 1
    8836     2414     2415 1
    8837     1429     1430 1
    8838     1222     1201 1
    8839     3892     3893 1
    8840     3068     3069 1
    8841     3851     3852 1
    8842     3690     3691 1
    8843    11798    11799 1
    8844     1695     1696 1
    8845    12149    12151 1
    8846     6668     6670 1
    8847     8423     8425 1
    8848    10070    10072 1
    8849     6344     6346 1
    8850     6506     6508 1
    8851     9179     9181 1
    8852     5345     5347 1
    8853     7100     7102 1
    8854     2796     2797 1
    8855     4118     4119 1
    8856     4574     4575 1
    8857    11186    11188 1
    8858     6299     6301 1
    8859     6851     6853 1
    8860    11738    11740 1
    8861    11522    11523 1
    8862     6635     6636 1
    8863     1058     1057 1
    8864      490      491 1
    8865     3816     3817 1
    8866     1886     1887 1
    8867     2897     2898 1
    8868     4242     4243 1
    8869     2258     2243 1
    8870    11366    11368 1
    8871     3413     3414 1
    8872     3180     3181 1
    8873     8864     8866 1
    8874      103      104 1
    8875     1561     1560 1
    8876    11036    11037 1
    8877    10577    10578 1
    8878     1775     1776 1
    8879     1125     1126 1
    8880     8087     8088 1
    8881     7331     7332 1
    8882     8249     8250 1
    8883    11057    11058 1
    8884     3376     3377 1
    8885     5846     5847 1
    8886    12056    12057 1
    8887     6008     6009 1
    8888    11894    11895 1
    8889     5684     5685 1
    8890     1972     1973 1
    8891     3194     3195 1
    8892     3079     3080 1
    8893     2870     2871 1
    8894      803      804 1
    8895     3512     3513 1
    8896      255      256 1
    8897     8297     8298 1
    8898     8825     8826 1
    8899     4730     4731 1
    8900      215      216 1
    8901      424      425 1
    8902     4022     4023 1
    8903      203      204 1
    8904     4353     4354 1
    8905     8936     8938 1
    8906     2964     2943 1
    8907     8774     8775 1
    8908     2621     2622 1
    8909     1840     1825 1
    8910    10286    10288 1
    8911     7682     7684 1
    8912     7520     7522 1
    8913    10733    10735 1
    8914     2007     2008 1
    8915     2226     2227 1
    8916    10814    10816 1
    8917     9518     9520 1
    8918    10652    10654 1
    8919    10037    10039 1
    8920     7763     7765 1
    8921      690      691 1
    8922     4029     4030 1
    8923    12041    12042 1
    8924     2957     2958 1
    8925     9341     9342 1
    8926    12311    12312 1
    8927     7262     7263 1
    8928     5042     5044 1
    8929     2943     2942 1
    8930     8909     8910 1
    8931     7190     7191 1
    8932      282      283 1
    8933     4233     4218 1
    8934     1463     1464 1
    8935     2206     2207 1
    8936     2059     2060 1
    8937     1912     1913 1
    8938     2290     2291 1
    8939    11858    11859 1
    8940     8591     8592 1
    8941     9860     9861 1
    8942    11777    11778 1
    8943     8807     8808 1
    8944     6755     6756 1
    8945     5810     5811 1
    8946     9806     9807 1
    8947     6809     6810 1
    8948     3558     3559 1
    8949     5084     5085 1
    8950     9323     9324 1
    8951    12293    12294 1
    8952    11294    11295 1
    8953     6245     6246 1
    8954     4213     4214 1
    8955     7244     7245 1
    8956     6407     6408 1
    8957     3446     3447 1
    8958      494      497 1
    8959      463      464 1
    8960      339      341 1
    8961     4727     4728 1
    8962     4100     4085 1
    8963    11612    11614 1
    8964     7799     7801 1
    8965     3352     3353 1
    8966    10418    10420 1
    8967     4549     4550 1
    8968     9554     9556 1
    8969    10769    10771 1
    8970     9365     9367 1
    8971     7610     7612 1
    8972     2704     2705 1
    8973     3308     3307 1
    8974     9929     9931 1
    8975      358      359 1
    8976     4153     4154 1
    8977      395      396 1
    8978      207      208 1
    8979     3910     3913 1
    8980     1602     1603 1
    8981      802      803 1
    8982     1014     1015 1
    8983     8765     8767 1
    8984     7161     7160 1
    8985     2244     2245 1
    8986    10757    10758 1
    8987     9542     9543 1
    8988     1944     1945 1
    8989     7787     7788 1
    8990    10568    10570 1
    8991    11447    11449 1
    8992     5318     5320 1
    8993     9611     9613 1
    8994    10595    10596 1
    8995     8234     8236 1
    8996     8477     8479 1
    8997     6398     6400 1
    8998     3586     3587 1
    8999     3320     3321 1
    9000     8609     8611 1
    9001     5489     5491 1
    9002     9188     9190 1
    9003     7676     7678 1
    9004    10808    10810 1
    9005     7514     7516 1
    9006    10646    10648 1
    9007    10727    10729 1
    9008     7433     7435 1
    9009     7271     7273 1
    9010    12239    12241 1
    9011     9512     9514 1
    9012     9875     9877 1
    9013       73       74 1
    9014     7634     7635 1
    9015      769      770 1
    9016     2214     2215 1
    9017      290      289 1
    9018     3734     3735 1
    9019     3802     3804 1
    9020     4342     4343 1
    9021     4108     4109 1
    9022     3205     3206 1
    9023     1365     1367 1
    9024     3689     3690 1
    9025     4039     4040 1
    9026     8510     8511 1
    9027     6485     6486 1
    9028     8321     8322 1
    9029     9509     9510 1
    9030     6593     6594 1
    9031    10643    10644 1
    9032     6323     6324 1
    9033     6674     6675 1
    9034     4146     4147 1
    9035     1303     1304 1
    9036      339      340 1
    9037     9848     9849 1
    9038     2231     2232 1
    9039     1517     1518 1
    9040     2084     2085 1
    9041     9857     9859 1
    9042     9155     9157 1
    9043     8804     8806 1
    9044    11774    11776 1
    9045     7238     7240 1
    9046    10775    10777 1
    9047     5159     5161 1
    9048     6482     6484 1
    9049     9695     9697 1
    9050     6725     6727 1
    9051     2878     2880 1
    9052     3415     3416 1
    9053     2970     2971 1
    9054     3323     3325 1
    9055     3739     3740 1
    9056     2428     2429 1
    9057     3791     3792 1
    9058      107      108 1
    9059     4733     4734 1
    9060     3992     3993 1
    9061     3135     3136 1
    9062     7901     7903 1
    9063      899      900 1
    9064    10106    10107 1
    9065     5690     5692 1
    9066    11828    11829 1
    9067     3424     3425 1
    9068     6185     6186 1
    9069     5537     5538 1
    9070     9830     9831 1
    9071     8696     8697 1
    9072     5186     5187 1
    9073    11396    11397 1
    9074     5105     5106 1
    9075     2686     2687 1
    9076     3119     3120 1
    9077      555      557 1
    9078     9068     9069 1
    9079      430      431 1
    9080     3272     3273 1
    9081     4543     4542 1
    9082    12026    12028 1
    9083     7139     7141 1
    9084     3612     3591 1
    9085     9599     9600 1
    9086     7889     7891 1
    9087     4700     4701 1
    9088     5726     5728 1
    9089     2780     2781 1
    9090     7445     7447 1
    9091     8228     8230 1
    9092    12332    12334 1
    9093     6815     6816 1
    9094     1752     1753 1
    9095     3809     3811 1
    9096     9677     9679 1
    9097     5306     5308 1
    9098     8465     8467 1
    9099     8222     8224 1
    9100     6116     6118 1
    9101     5117     5119 1
    9102    11165    11167 1
    9103    11435    11437 1
    9104     6197     6199 1
    9105    11084    11086 1
    9106     8033     8035 1
    9107    11219    11220 1
    9108     1600     1579 1
    9109     2910     2889 1
    9110     4189     4190 1
    9111     5387     5389 1
    9112     5852     5854 1
    9113     8741     8743 1
    9114    12062    12064 1
    9115     5237     5238 1
    9116    11042    11043 1
    9117     7013     7015 1
    9118     8579     8581 1
    9119    11285    11286 1
    9120     8153     8154 1
    9121     5663     5665 1
    9122     6479     6480 1
    9123     7991     7992 1
    9124     4151     4150 1
    9125     2036     2035 1
    9126     2335     2336 1
    9127     3867     3868 1
    9128      790      769 1
    9129     1386     1387 1
    9130      710      713 1
    9131     6449     6451 1
    9132     3081     3082 1
    9133     1663     1664 1
    9134      386      389 1
    9135     2379     2380 1
    9136     4621     4622 1
    9137    10928    10930 1
    9138     6041     6043 1
    9139    10051    10049 1
    9140     3125     3124 1
    9141     2722     2724 1
    9142     8474     8475 1
    9143     9392     9393 1
    9144    10445    10446 1
    9145    11444    11445 1
    9146    12200    12201 1
    9147     6395     6396 1
    9148    10712    10714 1
    9149     3468     3469 1
    9150     1032     1037 1
    9151     1259     1260 1
    9152     2891     2893 1
    9153    10217    10218 1
    9154     8489     8490 1
    9155     7409     7410 1
    9156     2560     2561 1
    9157     6572     6573 1
    9158     8327     8328 1
    9159     5249     5250 1
    9160    11459    11460 1
    9161     5411     5412 1
    9162     2201     2202 1
    9163       12       13 1
    9164     2938     2939 1
    9165     3700     3701 1
    9166     3639     3640 1
    9167     4439     4440 1
    9168     3326     3327 1
    9169     3117     3118 1
    9170    10361    10363 1
    9171     7391     7393 1
    9172     2695     2696 1
    9173     4892     4893 1
    9174    11342    11343 1
    9175     1412     1413 1
    9176    12272    12274 1
    9177     2452     2453 1
    9178      271      274 1
    9179     2470     2471 1
    9180     3757     3758 1
    9181     2682     2683 1
    9182     2903     2904 1
    9183     3377     3379 1
    9184    10934    10936 1
    9185     2630     2631 1
    9186     7592     7593 1
    9187     3255     3258 1
    9188    10562    10563 1
    9189     9482     9483 1
    9190    11750    11751 1
    9191     2197     2198 1
    9192     4227     4228 1
    9193     1927     1928 1
    9194     8843     8844 1
    9195    11108    11109 1
    9196     6656     6657 1
    9197     6494     6495 1
    9198     5954     5955 1
    9199     6332     6333 1
    9200     8411     8412 1
    9201     5333     5334 1
    9202     1094     1095 1
    9203     2666     2671 1
    9204     4682     4683 1
    9205     1142     1143 1
    9206     7994     7995 1
    9207     6221     6223 1
    9208     6302     6304 1
    9209    11270    11272 1
    9210     8138     8140 1
    9211     5951     5953 1
    9212     2916     2917 1
    9213     6059     6061 1
    9214     5222     5224 1
    9215     5141     5143 1
    9216     6464     6466 1
    9217     4168     4169 1
    9218     9727     9725 1
    9219    11174    11175 1
    9220     6287     6288 1
    9221       75       76 1
    9222     1027     1030 1
    9223    10374    10373 1
    9224     4926     4925 1
    9225     1910     1911 1
    9226     4826     4827 1
    9227     4070     4071 1
    9228      656      658 1
    9229    12164    12165 1
    9230     5714     5716 1
    9231     1062     1064 1
    9232     1697     1696 1
    9233     8021     8023 1
    9234     8087     8089 1
    9235     7007     7009 1
    9236     7331     7333 1
    9237    12056    12058 1
    9238     8249     8251 1
    9239     6008     6010 1
    9240    11057    11059 1
    9241     5846     5848 1
    9242     6500     6502 1
    9243    11894    11896 1
    9244      252      253 1
    9245     4829     4831 1
    9246      752      751 1
    9247     4489     4490 1
    9248     3604     3605 1
    9249     8636     8638 1
    9250     2198     2199 1
    9251     2513     2514 1
    9252    10340    10341 1
    9253     5885     5886 1
    9254    12095    12096 1
    9255    12014    12015 1
    9256     9044     9045 1
    9257     8882     8883 1
    9258    10178    10179 1
    9259    10259    10260 1
    9260     7046     7047 1
    9261       14       15 1
    9262     1539     1540 1
    9263     1106     1107 1
    9264     3961     3962 1
    9265     8405     8406 1
    9266     6488     6489 1
    9267     5948     5949 1
    9268     6650     6651 1
    9269     5327     5328 1
    9270     6326     6327 1
    9271     3715     3716 1
    9272     3061     3062 1
    9273     2539     2540 1
    9274     2364     2365 1
    9275     2755     2756 1
    9276     2752     2753 1
    9277     5855     5857 1
    9278    12065    12067 1
    9279    12146    12148 1
    9280     9176     9178 1
    9281     7097     7099 1
    9282    10067    10069 1
    9283     7340     7342 1
    9284     8795     8797 1
    9285     7016     7018 1
    9286     8570     8571 1
    9287     9686     9688 1
    9288      258      259 1
    9289      912      913 1
    9290     2837     2839 1
    9291      238      239 1
    9292      306      307 1
    9293    10883    10885 1
    9294     6929     6931 1
    9295     2496     2497 1
    9296      582      581 1
    9297     1638     1639 1
    9298     2408     2409 1
    9299     2853     2854 1
    9300     7316     7317 1
    9301     1654     1633 1
    9302     9341     9343 1
    9303    12311    12313 1
    9304    12041    12043 1
    9305     7154     7156 1
    9306     7262     7264 1
    9307     8909     8911 1
    9308     6992     6994 1
    9309     4612     4613 1
    9310    11858    11860 1
    9311    11561    11563 1
    9312     9860     9862 1
    9313     8807     8809 1
    9314     5810     5812 1
    9315     8672     8674 1
    9316     9806     9808 1
    9317     8591     8593 1
    9318     6755     6757 1
    9319     8447     8449 1
    9320     3855     3860 1
    9321     1755     1754 1
    9322    12293    12295 1
    9323     5084     5086 1
    9324    11294    11296 1
    9325     9323     9325 1
    9326     9902     9904 1
    9327     6245     6247 1
    9328     7244     7246 1
    9329     6407     6409 1
    9330     3142     3143 1
    9331     3575     3576 1
    9332     4874     4875 1
    9333     2435     2436 1
    9334     2871     2872 1
    9335     1926     1927 1
    9336      952      931 1
    9337     3386     3387 1
    9338     6590     6591 1
    9339     1038     1039 1
    9340       90       92 1
    9341     3646     3647 1
    9342     1139     1140 1
    9343      851      850 1
    9344     2017     2018 1
    9345     3528     3527 1
    9346     5699     5701 1
    9347    10073    10075 1
    9348     5861     5863 1
    9349     7346     7348 1
    9350    12218    12219 1
    9351     7493     7494 1
    9352     5171     5172 1
    9353    11381    11382 1
    9354    10463    10464 1
    9355     9182     9184 1
    9356     9086     9087 1
    9357     7169     7170 1
    9358     1108     1109 1
    9359     4889     4891 1
    9360     4865     4867 1
    9361     3303     3304 1
    9362     1021     1022 1
    9363     1000     1001 1
    9364      779      780 1
    9365     5312     5313 1
    9366     9200     9201 1
    9367     8471     8472 1
    9368     7202     7203 1
    9369     9281     9282 1
    9370    11441    11442 1
    9371     7445     7446 1
    9372    12332    12333 1
    9373     8228     8229 1
    9374      790      791 1
    9375      476      477 1
    9376     2397     2402 1
    9377    11945    11946 1
    9378      410      411 1
    9379      428      429 1
    9380     4594     4579 1
    9381     2830     2832 1
    9382     9143     9145 1
    9383     6875     6877 1
    9384     8954     8956 1
    9385     3353     3354 1
    9386     3872     3871 1
    9387     7226     7228 1
    9388    10007    10009 1
    9389     9116     9118 1
    9390     3433     3434 1
    9391    10196    10198 1
    9392    11549    11551 1
    9393    10802    10803 1
    9394     4868     4869 1
    9395     9965     9966 1
    9396     5915     5916 1
    9397     8312     8313 1
    9398    11720    11721 1
    9399     6833     6834 1
    9400     5834     5835 1
    9401     5510     5511 1
    9402    11882    11883 1
    9403      857      858 1
    9404     8042     8044 1
    9405     5126     5128 1
    9406     9716     9718 1
    9407     6212     6214 1
    9408    11099    11101 1
    9409     3024     3025 1
    9410      512      513 1
    9411      939      940 1
    9412      721      722 1
    9413     9338     9339 1
    9414     9509     9511 1
    9415     8510     8512 1
    9416     6485     6487 1
    9417     8321     8323 1
    9418     6593     6595 1
    9419    10643    10645 1
    9420     4205     4206 1
    9421     6323     6325 1
    9422     6674     6676 1
    9423     2684     2685 1
    9424     8306     8307 1
    9425     8144     8145 1
    9426     5228     5229 1
    9427     5147     5148 1
    9428    11033    11034 1
    9429     6470     6471 1
    9430    11276    11277 1
    9431    10925    10926 1
    9432     5957     5958 1
    9433     6038     6039 1
    9434     5789     5791 1
    9435    10790    10792 1
    9436     1822     1823 1
    9437    11576    11578 1
    9438     5258     5260 1
    9439     6689     6691 1
    9440      736      737 1
    9441     4566     4567 1
    9442     3610     3611 1
    9443     3626     3625 1
    9444     3215     3216 1
    9445     5393     5395 1
    9446     8876     8878 1
    9447     1501     1500 1
    9448     4880     4881 1
    9449     2426     2427 1
    9450     1103     1104 1
    9451      237      238 1
    9452     9779     9780 1
    9453    11534    11535 1
    9454    11615    11616 1
    9455     8645     8646 1
    9456     4068     4069 1
    9457     8564     8565 1
    9458     3230     3231 1
    9459     1649     1650 1
    9460      764      767 1
    9461     2315     2316 1
    9462     8117     8118 1
    9463      168      173 1
    9464    11900    11901 1
    9465     1180     1181 1
    9466     1389     1390 1
    9467      125      126 1
    9468     5639     5641 1
    9469     2614     2616 1
    9470     1227     1228 1
    9471     7796     7798 1
    9472     3043     3044 1
    9473     2775     2776 1
    9474     4519     4520 1
    9475    10375    10373 1
    9476     4927     4925 1
    9477     9403     9401 1
    9478      450      451 1
    9479     1973     1958 1
    9480     5267     5269 1
    9481     8912     8914 1
    9482     4226     4227 1
    9483     4373     4374 1
    9484     2841     2842 1
    9485     3919     3920 1
    9486      345      346 1
    9487     1423     1424 1
    9488     4457     4458 1
    9489     3713     3714 1
    9490     2632     2633 1
    9491    11822    11823 1
    9492     8450     8451 1
    9493     1897     1898 1
    9494     1209     1210 1
    9495     4434     4435 1
    9496     3714     3715 1
    9497     4287     4288 1
    9498     9620     9622 1
    9499     6317     6319 1
    9500     5156     5158 1
    9501     6479     6481 1
    9502    11285    11287 1
    9503     5912     5914 1
    9504     6236     6238 1
    9505     7748     7750 1
    9506     7991     7993 1
    9507    10961    10963 1
    9508     8153     8155 1
    9509     2600     2601 1
    9510     9974     9975 1
    9511     3202     3204 1
    9512     1632     1633 1
    9513     2567     2568 1
    9514    11333    11335 1
    9515     2170     2169 1
    9516     9524     9526 1
    9517     4025     4027 1
    9518     4073     4074 1
    9519     3903     3906 1
    9520    11996    11998 1
    9521     9911     9913 1
    9522     8858     8860 1
    9523     2041     2042 1
    9524      669      668 1
    9525      101      100 1
    9526     1855     1856 1
    9527     2158     2159 1
    9528     9551     9552 1
    9529     1356     1361 1
    9530     1128     1129 1
    9531     6428     6429 1
    9532     3420     3421 1
    9533     3128     3129 1
    9534     4497     4483 1
    9535      174      175 1
    9536      233      234 1
    9537      879      880 1
    9538     2221     2222 1
    9539      547      548 1
    9540     7340     7341 1
    9541     4793     4795 1
    9542     3948     3949 1
    9543     3736     3737 1
    9544      806      807 1
    9545     4609     4610 1
    9546      267      268 1
    9547      700      701 1
    9548     3103     3098 1
    9549      392      393 1
    9550     4547     4548 1
    9551     2493     2494 1
    9552    10439    10441 1
    9553       72       73 1
    9554     6540     6539 1
    9555     1293     1294 1
    9556      848      849 1
    9557    12284    12286 1
    9558     1304     1306 1
    9559     3798     3795 1
    9560     9302     9303 1
    9561    11750    11752 1
    9562     7592     7594 1
    9563    10562    10564 1
    9564     9482     9484 1
    9565    10136    10138 1
    9566     3974     3975 1
    9567     3541     3542 1
    9568    10793    10795 1
    9569     1933     1919 1
    9570     3852     3853 1
    9571     6656     6658 1
    9572     6332     6334 1
    9573     1048     1049 1
    9574     6494     6496 1
    9575     1889     1890 1
    9576     5954     5956 1
    9577     1702     1703 1
    9578     8411     8413 1
    9579     5333     5335 1
    9580     1876     1875 1
    9581     3504     3505 1
    9582      275      274 1
    9583     8555     8557 1
    9584     1335     1336 1
    9585      917      918 1
    9586     1466     1468 1
    9587     4623     4624 1
    9588     4041     4042 1
    9589     1357     1362 1
    9590     3310     3312 1
    9591     2137     2138 1
    9592     2284     2285 1
    9593     2910     2911 1
    9594    11639    11640 1
    9595     2333     2334 1
    9596      277      278 1
    9597      786      787 1
    9598     7811     7812 1
    9599     7568     7569 1
    9600    10700    10701 1
    9601    10538    10539 1
    9602     5975     5976 1
    9603     2945     2946 1
    9604     7649     7650 1
    9605     1999     2000 1
    9606     3001     3002 1
    9607     5357     5358 1
    9608      420      421 1
    9609    10229    10230 1
    9610     4919     4920 1
    9611     3726     3727 1
    9612     5666     5668 1
    9613     8123     8125 1
    9614    11633    11635 1
    9615     8582     8584 1
    9616    11552    11554 1
    9617     4697     4699 1
    9618     6206     6208 1
    9619     5045     5047 1
    9620     8744     8746 1
    9621     9797     9799 1
    9622      487      490 1
    9623     7310     7312 1
    9624     3485     3487 1
    9625     3028     3027 1
    9626    10880    10881 1
    9627     7910     7911 1
    9628     3492     3493 1
    9629     3283     3284 1
    9630     2966     2967 1
    9631     2412     2413 1
    9632      393      395 1
    9633      585      586 1
    9634     2099     2100 1
    9635    10340    10342 1
    9636    10178    10180 1
    9637     5885     5887 1
    9638    12095    12097 1
    9639    10259    10261 1
    9640     9044     9046 1
    9641     8882     8884 1
    9642     1871     1872 1
    9643      933      935 1
    9644    12176    12178 1
    9645     8405     8407 1
    9646     6488     6490 1
    9647     5948     5950 1
    9648     6650     6652 1
    9649     6365     6367 1
    9650    11252    11254 1
    9651     5327     5329 1
    9652     5744     5746 1
    9653     6326     6328 1
    9654     8315     8317 1
    9655     3357     3358 1
    9656     2703     2704 1
    9657     7907     7909 1
    9658     2398     2400 1
    9659      828      827 1
    9660     3891     3892 1
    9661     3037     3038 1
    9662     3682     3683 1
    9663     3127     3128 1
    9664     7301     7302 1
@<TRIPOS>SUBSTRUCTURE
       1 RES             1 RESIDUE    0 **** ROOT      0
