@<TRIPOS>MOLECULE
RES
12928 10240 1 0 1
SMALL
NO_CHARGES
@<TRIPOS>CRYSIN
   63.1638    53.0650    83.3220    90.0000    90.0000    90.0000  1  1
@<TRIPOS>ATOM
       1 N           10.9545    16.4317     0.0000 N             1 RES     
       2 C           11.4541    15.1385     0.3507 C             1 RES     
       3 C            9.6771    16.6793     0.3150 C             1 RES     
       4 C           11.7486    17.3455     0.5338 C             1 RES     
       5 CH2         11.1612    16.6233    -1.3635 CH2           1 RES     
       6 CH2         10.2264    15.5498    -1.9512 CH2           1 RES     
       7 P           11.4631    14.5900    -3.8962 P             1 RES     
       8 O           11.5735    14.6018    -5.4924 O             1 RES     
       9 O           10.2998    15.5865    -3.4339 O             1 RES     
      10 O           11.0871    13.0944    -3.4696 O             1 RES     
      11 O           12.8674    15.1087    -3.3316 O             1 RES     
      12 CH2         12.6599    13.6683    -5.8841 CH2           1 RES     
      13 CH2         12.8222    15.1892    -7.5230 CH2           1 RES     
      14 CH2         12.7962    13.6530    -7.4180 CH2           1 RES     
      15 C           14.1743    15.5729    -9.1559 C             1 RES     
      16 O           13.1957    15.2181    -9.8111 O             1 RES     
      17 O           14.2121    15.6483    -7.6582 O             1 RES     
      18 CH2         15.3326    15.6342    -9.9083 CH2           1 RES     
      19 CH2         14.7674    15.1915   -11.2707 CH2           1 RES     
      20 CH2         15.9274    14.9494   -12.2543 CH2           1 RES     
      21 CH2         15.3622    14.5067   -13.6167 CH2           1 RES     
      22 CH2         16.5222    14.2645   -14.6003 CH2           1 RES     
      23 CH2         15.9570    13.8218   -15.9627 CH2           1 RES     
      24 CH2         17.1170    13.5797   -16.9463 CH2           1 RES     
      25 CH2         16.5518    13.1370   -18.3087 CH2           1 RES     
      26 CH2         17.7118    12.8948   -19.2923 CH2           1 RES     
      27 CH2         17.1466    12.4521   -20.6547 CH2           1 RES     
      28 CH2         18.3066    12.2100   -21.6383 CH2           1 RES     
      29 CH2         17.7414    11.7673   -23.0007 CH2           1 RES     
      30 C           18.8486    11.5361   -23.9396 C             1 RES     
      31 C           14.5404    12.8829    -8.3342 C             1 RES     
      32 O           14.0631    13.4234    -9.3306 O             1 RES     
      33 O           13.9046    12.8927    -6.9756 O             1 RES     
      34 CH2         15.5832    12.0261    -8.6339 CH2           1 RES     
      35 CH2         15.6106    12.1939   -10.1644 CH2           1 RES     
      36 CH2         16.5564    11.1459   -10.7797 CH2           1 RES     
      37 CH2         16.5838    11.3138   -12.3103 CH2           1 RES     
      38 CH2         17.5296    10.2657   -12.9256 CH2           1 RES     
      39 CH2         17.5570    10.4336   -14.4561 CH2           1 RES     
      40 CH2         18.5028     9.3855   -15.0714 CH2           1 RES     
      41 CH2         18.5302     9.5534   -16.6020 CH2           1 RES     
      42 CH2         19.4760     8.5053   -17.2172 CH2           1 RES     
      43 CH2         19.5034     8.6732   -18.7478 CH2           1 RES     
      44 CH2         20.4492     7.6252   -19.3631 CH2           1 RES     
      45 CH2         20.4766     7.7930   -20.8937 CH2           1 RES     
      46 C           21.3794     6.7926   -21.4810 C             1 RES     
      47 N            0.0000    27.3861     0.0000 N             1 RES     
      48 C            0.7029    26.1912     0.3507 C             1 RES     
      49 C           -1.3006    27.4232     0.3150 C             1 RES     
      50 C            0.6354    28.4167     0.5338 C             1 RES     
      51 CH2          0.1729    27.6088    -1.3635 CH2           1 RES     
      52 CH2         -0.5753    26.3978    -1.9512 CH2           1 RES     
      53 P            0.8007    25.6514    -3.8962 P             1 RES     
      54 O            0.9077    25.6809    -5.4924 O             1 RES     
      55 O           -0.5088    26.4459    -3.4339 O             1 RES     
      56 O            0.6724    24.1146    -3.4696 O             1 RES     
      57 O            2.1023    26.3911    -3.3316 O             1 RES     
      58 CH2          2.1312    24.9361    -5.8841 CH2           1 RES     
      59 CH2          2.0446    26.4631    -7.5230 CH2           1 RES     
      60 CH2          2.2682    24.9431    -7.4180 CH2           1 RES     
      61 C            3.3166    27.0611    -9.1559 C             1 RES     
      62 O            2.4085    26.5523    -9.8111 O             1 RES     
      63 O            3.3416    27.1417    -7.6582 O             1 RES     
      64 CH2          4.4495    27.3096    -9.9083 CH2           1 RES     
      65 CH2          3.9636    26.7811   -11.2707 CH2           1 RES     
      66 CH2          5.1475    26.7303   -12.2543 CH2           1 RES     
      67 CH2          4.6617    26.2018   -13.6167 CH2           1 RES     
      68 CH2          5.8456    26.1511   -14.6003 CH2           1 RES     
      69 CH2          5.3597    25.6225   -15.9627 CH2           1 RES     
      70 CH2          6.5436    25.5718   -16.9463 CH2           1 RES     
      71 CH2          6.0577    25.0433   -18.3087 CH2           1 RES     
      72 CH2          7.2416    24.9925   -19.2923 CH2           1 RES     
      73 CH2          6.7558    24.4640   -20.6547 CH2           1 RES     
      74 CH2          7.9397    24.4133   -21.6383 CH2           1 RES     
      75 CH2          7.4538    23.8847   -23.0007 CH2           1 RES     
      76 C            8.5839    23.8363   -23.9396 C             1 RES     
      77 C            4.1142    24.4662    -8.3342 C             1 RES     
      78 O            3.5555    24.9221    -9.3306 O             1 RES     
      79 O            3.4853    24.3727    -6.9756 O             1 RES     
      80 CH2          5.2822    23.7899    -8.6339 CH2           1 RES     
      81 CH2          5.2820    23.9600   -10.1644 CH2           1 RES     
      82 CH2          6.3853    23.0793   -10.7797 CH2           1 RES     
      83 CH2          6.3851    23.2494   -12.3103 CH2           1 RES     
      84 CH2          7.4885    22.3687   -12.9256 CH2           1 RES     
      85 CH2          7.4882    22.5388   -14.4561 CH2           1 RES     
      86 CH2          8.5916    21.6581   -15.0714 CH2           1 RES     
      87 CH2          8.5914    21.8282   -16.6020 CH2           1 RES     
      88 CH2          9.6947    20.9475   -17.2172 CH2           1 RES     
      89 CH2          9.6945    21.1176   -18.7478 CH2           1 RES     
      90 CH2         10.7978    20.2368   -19.3631 CH2           1 RES     
      91 CH2         10.7976    20.4070   -20.8937 CH2           1 RES     
      92 C           11.8508    19.5663   -21.4810 C             1 RES     
      93 N           32.8634    38.3406     0.0000 N             1 RES     
      94 C           33.8848    37.4033     0.3507 C             1 RES     
      95 C           31.6087    37.9959     0.3150 C             1 RES     
      96 C           33.1697    39.5119     0.5338 C             1 RES     
      97 CH2         32.9636    38.6040    -1.3635 CH2           1 RES     
      98 CH2         32.6021    37.2272    -1.9512 CH2           1 RES     
      99 P           34.1362    36.9156    -3.8962 P             1 RES     
     100 O           34.2299    36.9752    -5.4924 O             1 RES     
     101 O           32.6516    37.2927    -3.4339 O             1 RES     
     102 O           34.4626    35.4085    -3.4696 O             1 RES     
     103 O           35.1647    38.0035    -3.3316 O             1 RES     
     104 CH2         35.6177    36.6206    -5.8841 CH2           1 RES     
     105 CH2         35.0885    38.0555    -7.5230 CH2           1 RES     
     106 CH2         35.7466    36.6672    -7.4180 CH2           1 RES     
     107 C           36.1301    38.9992    -9.1559 C             1 RES     
     108 O           35.4104    38.2472    -9.8111 O             1 RES     
     109 O           36.1305    39.0836    -7.6582 O             1 RES     
     110 CH2         37.1409    39.5680    -9.9083 CH2           1 RES     
     111 CH2         36.8307    38.9206   -11.2707 CH2           1 RES     
     112 CH2         37.9778    39.2181   -12.2543 CH2           1 RES     
     113 CH2         37.6676    38.5706   -13.6167 CH2           1 RES     
     114 CH2         38.8146    38.8682   -14.6003 CH2           1 RES     
     115 CH2         38.5045    38.2207   -15.9627 CH2           1 RES     
     116 CH2         39.6515    38.5182   -16.9463 CH2           1 RES     
     117 CH2         39.3414    37.8708   -18.3087 CH2           1 RES     
     118 CH2         40.4884    38.1683   -19.2923 CH2           1 RES     
     119 CH2         40.1782    37.5208   -20.6547 CH2           1 RES     
     120 CH2         41.3253    37.8184   -21.6383 CH2           1 RES     
     121 CH2         41.0151    37.1709   -23.0007 CH2           1 RES     
     122 C           42.1100    37.4549   -23.9396 C             1 RES     
     123 C           37.6514    36.7508    -8.3342 C             1 RES     
     124 O           36.9839    37.0235    -9.3306 O             1 RES     
     125 O           37.0772    36.4775    -6.9756 O             1 RES     
     126 CH2         38.9661    36.4454    -8.6339 CH2           1 RES     
     127 CH2         38.9161    36.6081   -10.1644 CH2           1 RES     
     128 CH2         40.2287    36.0883   -10.7797 CH2           1 RES     
     129 CH2         40.1788    36.2509   -12.3103 CH2           1 RES     
     130 CH2         41.4914    35.7312   -12.9256 CH2           1 RES     
     131 CH2         41.4415    35.8938   -14.4561 CH2           1 RES     
     132 CH2         42.7541    35.3741   -15.0714 CH2           1 RES     
     133 CH2         42.7041    35.5367   -16.6020 CH2           1 RES     
     134 CH2         44.0167    35.0169   -17.2172 CH2           1 RES     
     135 CH2         43.9668    35.1796   -18.7478 CH2           1 RES     
     136 CH2         45.2794    34.6598   -19.3631 CH2           1 RES     
     137 CH2         45.2295    34.8224   -20.8937 CH2           1 RES     
     138 C           46.4824    34.3263   -21.4810 C             1 RES     
     139 N           27.3861     5.4772     0.0000 N             1 RES     
     140 C           28.4523     4.5911     0.3507 C             1 RES     
     141 C           26.1499     5.0714     0.3150 C             1 RES     
     142 C           27.6347     6.6621     0.5338 C             1 RES     
     143 CH2         27.4733     5.7453    -1.3635 CH2           1 RES     
     144 CH2         27.1798     4.3524    -1.9512 CH2           1 RES     
     145 P           28.7273     4.1164    -3.8962 P             1 RES     
     146 O           28.8179     4.1804    -5.4924 O             1 RES     
     147 O           27.2259     4.4202    -3.4339 O             1 RES     
     148 O           29.1272     2.6271    -3.4696 O             1 RES     
     149 O           29.7012     5.2533    -3.3316 O             1 RES     
     150 CH2         30.2214     3.8943    -5.8841 CH2           1 RES     
     151 CH2         29.6226     5.3016    -7.5230 CH2           1 RES     
     152 CH2         30.3480     3.9472    -7.4180 CH2           1 RES     
     153 C           30.6166     6.2952    -9.1559 C             1 RES     
     154 O           29.9346     5.5088    -9.8111 O             1 RES     
     155 O           30.6129     6.3795    -7.6582 O             1 RES     
     156 CH2         31.5984     6.9128    -9.9083 CH2           1 RES     
     157 CH2         31.3203     6.2510   -11.2707 CH2           1 RES     
     158 CH2         32.4514     6.6043   -12.2543 CH2           1 RES     
     159 CH2         32.1733     5.9425   -13.6167 CH2           1 RES     
     160 CH2         33.3044     6.2959   -14.6003 CH2           1 RES     
     161 CH2         33.0264     5.6340   -15.9627 CH2           1 RES     
     162 CH2         34.1574     5.9874   -16.9463 CH2           1 RES     
     163 CH2         33.8794     5.3255   -18.3087 CH2           1 RES     
     164 CH2         35.0104     5.6789   -19.2923 CH2           1 RES     
     165 CH2         34.7324     5.0170   -20.6547 CH2           1 RES     
     166 CH2         35.8635     5.3704   -21.6383 CH2           1 RES     
     167 CH2         35.5854     4.7085   -23.0007 CH2           1 RES     
     168 C           36.6651     5.0458   -23.9396 C             1 RES     
     169 C           32.2463     4.1240    -8.3342 C             1 RES     
     170 O           31.5662     4.3637    -9.3306 O             1 RES     
     171 O           31.6863     3.8230    -6.9756 O             1 RES     
     172 CH2         33.5744     3.8835    -8.6339 CH2           1 RES     
     173 CH2         33.5165     4.0435   -10.1644 CH2           1 RES     
     174 CH2         34.8530     3.5887   -10.7797 CH2           1 RES     
     175 CH2         34.7952     3.7486   -12.3103 CH2           1 RES     
     176 CH2         36.1317     3.2939   -12.9256 CH2           1 RES     
     177 CH2         36.0738     3.4538   -14.4561 CH2           1 RES     
     178 CH2         37.4103     2.9990   -15.0714 CH2           1 RES     
     179 CH2         37.3525     3.1590   -16.6020 CH2           1 RES     
     180 CH2         38.6890     2.7042   -17.2172 CH2           1 RES     
     181 CH2         38.6311     2.8642   -18.7478 CH2           1 RES     
     182 CH2         39.9676     2.4094   -19.3631 CH2           1 RES     
     183 CH2         39.9098     2.5694   -20.8937 CH2           1 RES     
     184 C           41.1855     2.1353   -21.4810 C             1 RES     
     185 N           21.9089    10.9545     0.0000 N             1 RES     
     186 C           22.6834     9.8046     0.3507 C             1 RES     
     187 C           20.6084    10.9121     0.3150 C             1 RES     
     188 C           22.4802    12.0219     0.5338 C             1 RES     
     189 CH2         22.0679    11.1872    -1.3635 CH2           1 RES     
     190 CH2         21.3950     9.9328    -1.9512 CH2           1 RES     
     191 P           22.8140     9.2718    -3.8962 P             1 RES     
     192 O           22.9190     9.3078    -5.4924 O             1 RES     
     193 O           21.4584     9.9850    -3.4339 O             1 RES     
     194 O           22.7796     7.7301    -3.4696 O             1 RES     
     195 O           24.0680    10.0895    -3.3316 O             1 RES     
     196 CH2         24.1856     8.6390    -5.8841 CH2           1 RES     
     197 CH2         24.0060    10.1579    -7.5230 CH2           1 RES     
     198 CH2         24.3219     8.6543    -7.4180 CH2           1 RES     
     199 C           25.2391    10.8324    -9.1559 C             1 RES     
     200 O           24.3637    10.2691    -9.8111 O             1 RES     
     201 O           25.2592    10.9143    -7.6582 O             1 RES     
     202 CH2         26.3548    11.1495    -9.9083 CH2           1 RES     
     203 CH2         25.9021    10.5924   -11.2707 CH2           1 RES     
     204 CH2         27.0869    10.6139   -12.2543 CH2           1 RES     
     205 CH2         26.6341    10.0568   -13.6167 CH2           1 RES     
     206 CH2         27.8189    10.0783   -14.6003 CH2           1 RES     
     207 CH2         27.3662     9.5212   -15.9627 CH2           1 RES     
     208 CH2         28.5510     9.5427   -16.9463 CH2           1 RES     
     209 CH2         28.0983     8.9856   -18.3087 CH2           1 RES     
     210 CH2         29.2831     9.0071   -19.2923 CH2           1 RES     
     211 CH2         28.8304     8.4499   -20.6547 CH2           1 RES     
     212 CH2         30.0152     8.4715   -21.6383 CH2           1 RES     
     213 CH2         29.5625     7.9143   -23.0007 CH2           1 RES     
     214 C           30.6934     7.9349   -23.9396 C             1 RES     
     215 C           26.1936     8.2910    -8.3342 C             1 RES     
     216 O           25.6082     8.7120    -9.3306 O             1 RES     
     217 O           25.5715     8.1593    -6.9756 O             1 RES     
     218 CH2         27.4007     7.6872    -8.6339 CH2           1 RES     
     219 CH2         27.3901     7.8570   -10.1644 CH2           1 RES     
     220 CH2         28.5451     7.0452   -10.7797 CH2           1 RES     
     221 CH2         28.5345     7.2150   -12.3103 CH2           1 RES     
     222 CH2         29.6895     6.4032   -12.9256 CH2           1 RES     
     223 CH2         29.6789     6.5730   -14.4561 CH2           1 RES     
     224 CH2         30.8340     5.7612   -15.0714 CH2           1 RES     
     225 CH2         30.8234     5.9310   -16.6020 CH2           1 RES     
     226 CH2         31.9784     5.1192   -17.2172 CH2           1 RES     
     227 CH2         31.9678     5.2890   -18.7478 CH2           1 RES     
     228 CH2         33.1228     4.4773   -19.3631 CH2           1 RES     
     229 CH2         33.1122     4.6471   -20.8937 CH2           1 RES     
     230 C           34.2147     3.8722   -21.4810 C             1 RES     
     231 N           38.3406    32.8634     0.0000 N             1 RES     
     232 C           39.0732    31.6864     0.3507 C             1 RES     
     233 C           37.0394    32.8678     0.3150 C             1 RES     
     234 C           38.9499    33.9096     0.5338 C             1 RES     
     235 CH2         38.5078    33.0903    -1.3635 CH2           1 RES     
     236 CH2         37.7903    31.8609    -1.9512 CH2           1 RES     
     237 P           39.1845    31.1492    -3.8962 P             1 RES     
     238 O           39.2907    31.1814    -5.4924 O             1 RES     
     239 O           37.8555    31.9107    -3.4339 O             1 RES     
     240 O           39.0947    29.6097    -3.4696 O             1 RES     
     241 O           40.4671    31.9213    -3.3316 O             1 RES     
     242 CH2         40.5325    30.4675    -5.8841 CH2           1 RES     
     243 CH2         40.4077    31.9919    -7.5230 CH2           1 RES     
     244 CH2         40.6693    30.4779    -7.4180 CH2           1 RES     
     245 C           41.6643    32.6216    -9.1559 C             1 RES     
     246 O           40.7692    32.0902    -9.8111 O             1 RES     
     247 O           41.6873    32.7027    -7.6582 O             1 RES     
     248 CH2         42.7906    32.8984    -9.9083 CH2           1 RES     
     249 CH2         42.3181    32.3578   -11.2707 CH2           1 RES     
     250 CH2         43.5029    32.3368   -12.2543 CH2           1 RES     
     251 CH2         43.0305    31.7962   -13.6167 CH2           1 RES     
     252 CH2         44.2153    31.7752   -14.6003 CH2           1 RES     
     253 CH2         43.7428    31.2347   -15.9627 CH2           1 RES     
     254 CH2         44.9276    31.2136   -16.9463 CH2           1 RES     
     255 CH2         44.4551    30.6731   -18.3087 CH2           1 RES     
     256 CH2         45.6399    30.6520   -19.2923 CH2           1 RES     
     257 CH2         45.1675    30.1115   -20.6547 CH2           1 RES     
     258 CH2         46.3523    30.0904   -21.6383 CH2           1 RES     
     259 CH2         45.8798    29.5499   -23.0007 CH2           1 RES     
     260 C           47.0108    29.5298   -23.9396 C             1 RES     
     261 C           42.5267    30.0475    -8.3342 C             1 RES     
     262 O           41.9568    30.4892    -9.3306 O             1 RES     
     263 O           41.9003    29.9382    -6.9756 O             1 RES     
     264 CH2         43.7113    29.4006    -8.6339 CH2           1 RES     
     265 CH2         43.7068    29.5707   -10.1644 CH2           1 RES     
     266 CH2         44.8318    28.7179   -10.7797 CH2           1 RES     
     267 CH2         44.8274    28.8880   -12.3103 CH2           1 RES     
     268 CH2         45.9524    28.0352   -12.9256 CH2           1 RES     
     269 CH2         45.9480    28.2052   -14.4561 CH2           1 RES     
     270 CH2         47.0730    27.3524   -15.0714 CH2           1 RES     
     271 CH2         47.0686    27.5225   -16.6020 CH2           1 RES     
     272 CH2         48.1936    26.6697   -17.2172 CH2           1 RES     
     273 CH2         48.1891    26.8397   -18.7478 CH2           1 RES     
     274 CH2         49.3142    25.9869   -19.3631 CH2           1 RES     
     275 CH2         49.3097    26.1570   -20.8937 CH2           1 RES     
     276 C           50.3837    25.3430   -21.4810 C             1 RES     
     277 N           21.9089    38.3406     0.0000 N             1 RES     
     278 C           22.8381    37.3118     0.3507 C             1 RES     
     279 C           20.6275    38.1148     0.3150 C             1 RES     
     280 C           22.3236    39.4781     0.5338 C             1 RES     
     281 CH2         22.0334    38.5935    -1.3635 CH2           1 RES     
     282 CH2         21.5446    37.2566    -1.9512 CH2           1 RES     
     283 P           23.0427    36.8027    -3.8962 P             1 RES     
     284 O           23.1416    36.8532    -5.4924 O             1 RES     
     285 O           21.5999    37.3171    -3.4339 O             1 RES     
     286 O           23.2267    35.2717    -3.4696 O             1 RES     
     287 O           24.1686    37.7895    -3.3316 O             1 RES     
     288 CH2         24.4901    36.3703    -5.8841 CH2           1 RES     
     289 CH2         24.0976    37.8485    -7.5230 CH2           1 RES     
     290 CH2         24.6229    36.4047    -7.4180 CH2           1 RES     
     291 C           25.2229    38.6905    -9.1559 C             1 RES     
     292 O           24.4360    38.0092    -9.8111 O             1 RES     
     293 O           25.2312    38.7745    -7.6582 O             1 RES     
     294 CH2         26.2826    39.1622    -9.9083 CH2           1 RES     
     295 CH2         25.9132    38.5466   -11.2707 CH2           1 RES     
     296 CH2         27.0830    38.7355   -12.2543 CH2           1 RES     
     297 CH2         26.7136    38.1199   -13.6167 CH2           1 RES     
     298 CH2         27.8834    38.3087   -14.6003 CH2           1 RES     
     299 CH2         27.5140    37.6931   -15.9627 CH2           1 RES     
     300 CH2         28.6839    37.8820   -16.9463 CH2           1 RES     
     301 CH2         28.3145    37.2664   -18.3087 CH2           1 RES     
     302 CH2         29.4843    37.4553   -19.2923 CH2           1 RES     
     303 CH2         29.1149    36.8397   -20.6547 CH2           1 RES     
     304 CH2         30.2848    37.0285   -21.6383 CH2           1 RES     
     305 CH2         29.9154    36.4129   -23.0007 CH2           1 RES     
     306 C           31.0320    36.5932   -23.9396 C             1 RES     
     307 C           26.5271    36.3096    -8.3342 C             1 RES     
     308 O           25.8880    36.6436    -9.3306 O             1 RES     
     309 O           25.9299    36.0912    -6.9756 O             1 RES     
     310 CH2         27.8074    35.8825    -8.6339 CH2           1 RES     
     311 CH2         27.7729    36.0491   -10.1644 CH2           1 RES     
     312 CH2         29.0311    35.4087   -10.7797 CH2           1 RES     
     313 CH2         28.9966    35.5753   -12.3103 CH2           1 RES     
     314 CH2         30.2548    34.9350   -12.9256 CH2           1 RES     
     315 CH2         30.2203    35.1015   -14.4561 CH2           1 RES     
     316 CH2         31.4785    34.4612   -15.0714 CH2           1 RES     
     317 CH2         31.4440    34.6278   -16.6020 CH2           1 RES     
     318 CH2         32.7022    33.9874   -17.2172 CH2           1 RES     
     319 CH2         32.6677    34.1540   -18.7478 CH2           1 RES     
     320 CH2         33.9258    33.5137   -19.3631 CH2           1 RES     
     321 CH2         33.8914    33.6803   -20.8937 CH2           1 RES     
     322 C           35.0923    33.0690   -21.4810 C             1 RES     
     323 N            5.4772    16.4317     0.0000 N             1 RES     
     324 C            6.2229    15.2630     0.3507 C             1 RES     
     325 C            4.1761    16.4217     0.3150 C             1 RES     
     326 C            6.0749    17.4846     0.5338 C             1 RES     
     327 CH2          5.6419    16.6604    -1.3635 CH2           1 RES     
     328 CH2          4.9381    15.4232    -1.9512 CH2           1 RES     
     329 P            6.3402    14.7270    -3.8962 P             1 RES     
     330 O            6.4460    14.7604    -5.4924 O             1 RES     
     331 O            5.0027    15.4737    -3.4339 O             1 RES     
     332 O            6.2676    13.1867    -3.4696 O             1 RES     
     333 O            7.6141    15.5133    -3.3316 O             1 RES     
     334 CH2          7.6957    14.0604    -5.8841 CH2           1 RES     
     335 CH2          7.5539    15.5833    -7.5230 CH2           1 RES     
     336 CH2          7.8324    14.0723    -7.4180 CH2           1 RES     
     337 C            8.8034    16.2269    -9.1559 C             1 RES     
     338 O            7.9143    15.6856    -9.8111 O             1 RES     
     339 O            8.8255    16.3083    -7.6582 O             1 RES     
     340 CH2          9.9266    16.5162    -9.9083 CH2           1 RES     
     341 CH2          9.4602    15.9705   -11.2707 CH2           1 RES     
     342 CH2         10.6451    15.9626   -12.2543 CH2           1 RES     
     343 CH2         10.1787    15.4168   -13.6167 CH2           1 RES     
     344 CH2         11.3637    15.4090   -14.6003 CH2           1 RES     
     345 CH2         10.8972    14.8632   -15.9627 CH2           1 RES     
     346 CH2         12.0822    14.8553   -16.9463 CH2           1 RES     
     347 CH2         11.6158    14.3096   -18.3087 CH2           1 RES     
     348 CH2         12.8007    14.3017   -19.2923 CH2           1 RES     
     349 CH2         12.3343    13.7559   -20.6547 CH2           1 RES     
     350 CH2         13.5193    13.7481   -21.6383 CH2           1 RES     
     351 CH2         13.0529    13.2023   -23.0007 CH2           1 RES     
     352 C           14.1840    13.1948   -23.9396 C             1 RES     
     353 C            9.6944    13.6626    -8.3342 C             1 RES     
     354 O            9.1196    14.0980    -9.3306 O             1 RES     
     355 O            9.0693    13.5464    -6.9756 O             1 RES     
     356 CH2         10.8861    13.0290    -8.6339 CH2           1 RES     
     357 CH2         10.8797    13.1989   -10.1644 CH2           1 RES     
     358 CH2         12.0142    12.3587   -10.7797 CH2           1 RES     
     359 CH2         12.0079    12.5287   -12.3103 CH2           1 RES     
     360 CH2         13.1424    11.6885   -12.9256 CH2           1 RES     
     361 CH2         13.1360    11.8585   -14.4561 CH2           1 RES     
     362 CH2         14.2705    11.0183   -15.0714 CH2           1 RES     
     363 CH2         14.2641    11.1883   -16.6020 CH2           1 RES     
     364 CH2         15.3986    10.3480   -17.2172 CH2           1 RES     
     365 CH2         15.3922    10.5180   -18.7478 CH2           1 RES     
     366 CH2         16.5267     9.6778   -19.3631 CH2           1 RES     
     367 CH2         16.5203     9.8478   -20.8937 CH2           1 RES     
     368 C           17.6033     9.0458   -21.4810 C             1 RES     
     369 N           16.4317    27.3861     0.0000 N             1 RES     
     370 C           17.4444    26.4394     0.3507 C             1 RES     
     371 C           15.1739    27.0530     0.3150 C             1 RES     
     372 C           16.7488    28.5546     0.5338 C             1 RES     
     373 CH2         16.5343    27.6486    -1.3635 CH2           1 RES     
     374 CH2         16.1602    26.2752    -1.9512 CH2           1 RES     
     375 P           17.6913    25.9495    -3.8962 P             1 RES     
     376 O           17.7855    26.0082    -5.4924 O             1 RES     
     377 O           16.2102    26.3403    -3.4339 O             1 RES     
     378 O           18.0038    24.4394    -3.4696 O             1 RES     
     379 O           18.7298    27.0278    -3.3316 O             1 RES     
     380 CH2         19.1700    25.6407    -5.8841 CH2           1 RES     
     381 CH2         18.6541    27.0806    -7.5230 CH2           1 RES     
     382 CH2         19.2994    25.6862    -7.4180 CH2           1 RES     
     383 C           19.7043    28.0146    -9.1559 C             1 RES     
     384 O           18.9777    27.2692    -9.8111 O             1 RES     
     385 O           19.7055    28.0989    -7.6582 O             1 RES     
     386 CH2         20.7204    28.5740    -9.9083 CH2           1 RES     
     387 CH2         20.4042    27.9294   -11.2707 CH2           1 RES     
     388 CH2         21.5540    28.2164   -12.2543 CH2           1 RES     
     389 CH2         21.2379    27.5718   -13.6167 CH2           1 RES     
     390 CH2         22.3876    27.8587   -14.6003 CH2           1 RES     
     391 CH2         22.0715    27.2142   -15.9627 CH2           1 RES     
     392 CH2         23.2212    27.5011   -16.9463 CH2           1 RES     
     393 CH2         22.9051    26.8565   -18.3087 CH2           1 RES     
     394 CH2         24.0548    27.1434   -19.2923 CH2           1 RES     
     395 CH2         23.7387    26.4989   -20.6547 CH2           1 RES     
     396 CH2         24.8884    26.7858   -21.6383 CH2           1 RES     
     397 CH2         24.5723    26.1412   -23.0007 CH2           1 RES     
     398 C           25.6697    26.4151   -23.9396 C             1 RES     
     399 C           21.2048    25.7522    -8.3342 C             1 RES     
     400 O           20.5398    26.0311    -9.3306 O             1 RES     
     401 O           20.6282    25.4842    -6.9756 O             1 RES     
     402 CH2         22.5166    25.4347    -8.6339 CH2           1 RES     
     403 CH2         22.4682    25.5978   -10.1644 CH2           1 RES     
     404 CH2         23.7759    25.0659   -10.7797 CH2           1 RES     
     405 CH2         23.7275    25.2290   -12.3103 CH2           1 RES     
     406 CH2         25.0352    24.6972   -12.9256 CH2           1 RES     
     407 CH2         24.9868    24.8603   -14.4561 CH2           1 RES     
     408 CH2         26.2946    24.3284   -15.0714 CH2           1 RES     
     409 CH2         26.2461    24.4915   -16.6020 CH2           1 RES     
     410 CH2         27.5539    23.9596   -17.2172 CH2           1 RES     
     411 CH2         27.5054    24.1227   -18.7478 CH2           1 RES     
     412 CH2         28.8132    23.5909   -19.3631 CH2           1 RES     
     413 CH2         28.7648    23.7539   -20.8937 CH2           1 RES     
     414 C           30.0131    23.2463   -21.4810 C             1 RES     
     415 N            5.4772     0.0000     0.0000 N             1 RES     
     416 C            6.2611    -1.1434     0.3507 C             1 RES     
     417 C            4.1772    -0.0531     0.3150 C             1 RES     
     418 C            6.0397     1.0721     0.5338 C             1 RES     
     419 CH2          5.6343     0.2341    -1.3635 CH2           1 RES     
     420 CH2          4.9718    -1.0258    -1.9512 CH2           1 RES     
     421 P            6.3961    -1.6751    -3.8962 P             1 RES     
     422 O            6.5008    -1.6383    -5.4924 O             1 RES     
     423 O            5.0347    -0.9732    -3.4339 O             1 RES     
     424 O            6.3745    -3.2171    -3.4696 O             1 RES     
     425 O            7.6434    -0.8471    -3.3316 O             1 RES     
     426 CH2          7.7730    -2.2965    -5.8841 CH2           1 RES     
     427 CH2          7.5809    -0.7792    -7.5230 CH2           1 RES     
     428 CH2          7.9092    -2.2801    -7.4180 CH2           1 RES     
     429 C            8.8083    -0.0946    -9.1559 C             1 RES     
     430 O            7.9376    -0.6651    -9.8111 O             1 RES     
     431 O            8.8277    -0.0125    -7.6582 O             1 RES     
     432 CH2          9.9213     0.2318    -9.9083 CH2           1 RES     
     433 CH2          9.4732    -0.3291   -11.2707 CH2           1 RES     
     434 CH2         10.6578    -0.2978   -12.2543 CH2           1 RES     
     435 CH2         10.2097    -0.8587   -13.6167 CH2           1 RES     
     436 CH2         11.3943    -0.8273   -14.6003 CH2           1 RES     
     437 CH2         10.9462    -1.3882   -15.9627 CH2           1 RES     
     438 CH2         12.1308    -1.3569   -16.9463 CH2           1 RES     
     439 CH2         11.6827    -1.9178   -18.3087 CH2           1 RES     
     440 CH2         12.8672    -1.8864   -19.2923 CH2           1 RES     
     441 CH2         12.4191    -2.4473   -20.6547 CH2           1 RES     
     442 CH2         13.6037    -2.4160   -21.6383 CH2           1 RES     
     443 CH2         13.1556    -2.9769   -23.0007 CH2           1 RES     
     444 C           14.2863    -2.9469   -23.9396 C             1 RES     
     445 C            9.7837    -2.6280    -8.3342 C             1 RES     
     446 O            9.1949    -2.2119    -9.3306 O             1 RES     
     447 O            9.1628    -2.7649    -6.9756 O             1 RES     
     448 CH2         10.9958    -3.2218    -8.6339 CH2           1 RES     
     449 CH2         10.9838    -3.0521   -10.1644 CH2           1 RES     
     450 CH2         12.1455    -3.8544   -10.7797 CH2           1 RES     
     451 CH2         12.1335    -3.6847   -12.3103 CH2           1 RES     
     452 CH2         13.2951    -4.4869   -12.9256 CH2           1 RES     
     453 CH2         13.2831    -4.3172   -14.4561 CH2           1 RES     
     454 CH2         14.4448    -5.1194   -15.0714 CH2           1 RES     
     455 CH2         14.4328    -4.9497   -16.6020 CH2           1 RES     
     456 CH2         15.5945    -5.7519   -17.2172 CH2           1 RES     
     457 CH2         15.5825    -5.5822   -18.7478 CH2           1 RES     
     458 CH2         16.7442    -6.3844   -19.3631 CH2           1 RES     
     459 CH2         16.7322    -6.2148   -20.8937 CH2           1 RES     
     460 C           17.8411    -6.9805   -21.4810 C             1 RES     
     461 N           27.3861    16.4317     0.0000 N             1 RES     
     462 C           28.3860    15.4714     0.3507 C             1 RES     
     463 C           26.1240    16.1155     0.3150 C             1 RES     
     464 C           27.7190    17.5957     0.5338 C             1 RES     
     465 CH2         27.4923    16.6928    -1.3635 CH2           1 RES     
     466 CH2         27.0997    15.3246    -1.9512 CH2           1 RES     
     467 P           28.6263    14.9782    -3.8962 P             1 RES     
     468 O           28.7213    15.0356    -5.4924 O             1 RES     
     469 O           27.1506    15.3889    -3.4339 O             1 RES     
     470 O           28.9185    13.4641    -3.4696 O             1 RES     
     471 O           29.6792    16.0425    -3.3316 O             1 RES     
     472 CH2         30.1007    14.6496    -5.8841 CH2           1 RES     
     473 CH2         29.6042    16.0962    -7.5230 CH2           1 RES     
     474 CH2         30.2307    14.6933    -7.4180 CH2           1 RES     
     475 C           30.6669    17.0160    -9.1559 C             1 RES     
     476 O           29.9304    16.2805    -9.8111 O             1 RES     
     477 O           30.6693    17.1004    -7.6582 O             1 RES     
     478 CH2         31.6904    17.5617    -9.9083 CH2           1 RES     
     479 CH2         31.3656    16.9215   -11.2707 CH2           1 RES     
     480 CH2         32.5191    17.1929   -12.2543 CH2           1 RES     
     481 CH2         32.1944    16.5527   -13.6167 CH2           1 RES     
     482 CH2         33.3478    16.8241   -14.6003 CH2           1 RES     
     483 CH2         33.0231    16.1838   -15.9627 CH2           1 RES     
     484 CH2         34.1766    16.4553   -16.9463 CH2           1 RES     
     485 CH2         33.8518    15.8150   -18.3087 CH2           1 RES     
     486 CH2         35.0053    16.0864   -19.2923 CH2           1 RES     
     487 CH2         34.6805    15.4462   -20.6547 CH2           1 RES     
     488 CH2         35.8340    15.7176   -21.6383 CH2           1 RES     
     489 CH2         35.5092    15.0774   -23.0007 CH2           1 RES     
     490 C           36.6103    15.3364   -23.9396 C             1 RES     
     491 C           32.1369    14.7337    -8.3342 C             1 RES     
     492 O           31.4757    15.0214    -9.3306 O             1 RES     
     493 O           31.5567    14.4735    -6.9756 O             1 RES     
     494 CH2         33.4443    14.3986    -8.6339 CH2           1 RES     
     495 CH2         33.3980    14.5623   -10.1644 CH2           1 RES     
     496 CH2         34.6985    14.0129   -10.7797 CH2           1 RES     
     497 CH2         34.6523    14.1766   -12.3103 CH2           1 RES     
     498 CH2         35.9527    13.6272   -12.9256 CH2           1 RES     
     499 CH2         35.9065    13.7909   -14.4561 CH2           1 RES     
     500 CH2         37.2070    13.2415   -15.0714 CH2           1 RES     
     501 CH2         37.1607    13.4052   -16.6020 CH2           1 RES     
     502 CH2         38.4612    12.8558   -17.2172 CH2           1 RES     
     503 CH2         38.4150    13.0196   -18.7478 CH2           1 RES     
     504 CH2         39.7154    12.4702   -19.3631 CH2           1 RES     
     505 CH2         39.6692    12.6339   -20.8937 CH2           1 RES     
     506 C           40.9106    12.1095   -21.4810 C             1 RES     
     507 N           32.8634    32.8634     0.0000 N             1 RES     
     508 C           33.7753    31.8192     0.3507 C             1 RES     
     509 C           31.5784    32.6590     0.3150 C             1 RES     
     510 C           33.2969    33.9938     0.5338 C             1 RES     
     511 CH2         32.9920    33.1142    -1.3635 CH2           1 RES     
     512 CH2         32.4810    31.7856    -1.9512 CH2           1 RES     
     513 P           33.9714    31.3069    -3.8962 P             1 RES     
     514 O           34.0711    31.3557    -5.4924 O             1 RES     
     515 O           32.5374    31.8452    -3.4339 O             1 RES     
     516 O           34.1299    29.7729    -3.4696 O             1 RES     
     517 O           35.1135    32.2748    -3.3316 O             1 RES     
     518 CH2         35.4114    30.8503    -5.8841 CH2           1 RES     
     519 CH2         35.0435    32.3349    -7.5230 CH2           1 RES     
     520 CH2         35.5447    30.8825    -7.4180 CH2           1 RES     
     521 C           36.1828    33.1581    -9.1559 C             1 RES     
     522 O           35.3846    32.4899    -9.8111 O             1 RES     
     523 O           36.1924    33.2419    -7.6582 O             1 RES     
     524 CH2         37.2501    33.6120    -9.9083 CH2           1 RES     
     525 CH2         36.8705    33.0027   -11.2707 CH2           1 RES     
     526 CH2         38.0433    33.1720   -12.2543 CH2           1 RES     
     527 CH2         37.6637    32.5627   -13.6167 CH2           1 RES     
     528 CH2         38.8365    32.7320   -14.6003 CH2           1 RES     
     529 CH2         38.4569    32.1227   -15.9627 CH2           1 RES     
     530 CH2         39.6298    32.2920   -16.9463 CH2           1 RES     
     531 CH2         39.2502    31.6827   -18.3087 CH2           1 RES     
     532 CH2         40.4230    31.8520   -19.2923 CH2           1 RES     
     533 CH2         40.0434    31.2427   -20.6547 CH2           1 RES     
     534 CH2         41.2162    31.4120   -21.6383 CH2           1 RES     
     535 CH2         40.8366    30.8027   -23.0007 CH2           1 RES     
     536 C           41.9561    30.9643   -23.9396 C             1 RES     
     537 C           37.4471    30.7557    -8.3342 C             1 RES     
     538 O           36.8137    31.1003    -9.3306 O             1 RES     
     539 O           36.8463    30.5474    -6.9756 O             1 RES     
     540 CH2         38.7201    30.3074    -8.6339 CH2           1 RES     
     541 CH2         38.6884    30.4745   -10.1644 CH2           1 RES     
     542 CH2         39.9357    29.8133   -10.7797 CH2           1 RES     
     543 CH2         39.9040    29.9804   -12.3103 CH2           1 RES     
     544 CH2         41.1514    29.3192   -12.9256 CH2           1 RES     
     545 CH2         41.1197    29.4864   -14.4561 CH2           1 RES     
     546 CH2         42.3670    28.8252   -15.0714 CH2           1 RES     
     547 CH2         42.3353    28.9923   -16.6020 CH2           1 RES     
     548 CH2         43.5826    28.3311   -17.2172 CH2           1 RES     
     549 CH2         43.5509    28.4982   -18.7478 CH2           1 RES     
     550 CH2         44.7982    27.8370   -19.3631 CH2           1 RES     
     551 CH2         44.7665    28.0042   -20.8937 CH2           1 RES     
     552 C           45.9572    27.3730   -21.4810 C             1 RES     
     553 N           38.3406     0.0000     0.0000 N             1 RES     
     554 C           39.3836    -0.9132     0.3507 C             1 RES     
     555 C           37.0943    -0.3739     0.3150 C             1 RES     
     556 C           38.6196     1.1781     0.5338 C             1 RES     
     557 CH2         38.4346     0.2657    -1.3635 CH2           1 RES     
     558 CH2         38.1053    -1.1191    -1.9512 CH2           1 RES     
     559 P           39.6463    -1.3949    -3.8962 P             1 RES     
     560 O           39.7385    -1.3332    -5.4924 O             1 RES     
     561 O           38.1533    -1.0525    -3.4339 O             1 RES     
     562 O           40.0078    -2.8940    -3.4696 O             1 RES     
     563 O           40.6491    -0.2834    -3.3316 O             1 RES     
     564 CH2         41.1342    -1.6554    -5.8841 CH2           1 RES     
     565 CH2         40.5718    -0.2331    -7.5230 CH2           1 RES     
     566 CH2         41.2621    -1.6057    -7.4180 CH2           1 RES     
     567 C           41.5911     0.7346    -9.1559 C             1 RES     
     568 O           40.8891    -0.0340    -9.8111 O             1 RES     
     569 O           41.5895     0.8189    -7.6582 O             1 RES     
     570 CH2         42.5883     1.3268    -9.9083 CH2           1 RES     
     571 CH2         42.2934     0.6723   -11.2707 CH2           1 RES     
     572 CH2         43.4331     0.9964   -12.2543 CH2           1 RES     
     573 CH2         43.1382     0.3419   -13.6167 CH2           1 RES     
     574 CH2         44.2780     0.6661   -14.6003 CH2           1 RES     
     575 CH2         43.9830     0.0116   -15.9627 CH2           1 RES     
     576 CH2         45.1228     0.3358   -16.9463 CH2           1 RES     
     577 CH2         44.8278    -0.3187   -18.3087 CH2           1 RES     
     578 CH2         45.9676     0.0054   -19.2923 CH2           1 RES     
     579 CH2         45.6726    -0.6491   -20.6547 CH2           1 RES     
     580 CH2         46.8124    -0.3249   -21.6383 CH2           1 RES     
     581 CH2         46.5174    -0.9794   -23.0007 CH2           1 RES     
     582 C           47.6053    -0.6700   -23.9396 C             1 RES     
     583 C           43.1644    -1.4778    -8.3342 C             1 RES     
     584 O           42.4907    -1.2207    -9.3306 O             1 RES     
     585 O           42.5967    -1.7643    -6.9756 O             1 RES     
     586 CH2         44.4858    -1.7524    -8.6339 CH2           1 RES     
     587 CH2         44.4321    -1.5910   -10.1644 CH2           1 RES     
     588 CH2         45.7564    -2.0800   -10.7797 CH2           1 RES     
     589 CH2         45.7027    -1.9186   -12.3103 CH2           1 RES     
     590 CH2         47.0271    -2.4076   -12.9256 CH2           1 RES     
     591 CH2         46.9734    -2.2462   -14.4561 CH2           1 RES     
     592 CH2         48.2977    -2.7352   -15.0714 CH2           1 RES     
     593 CH2         48.2440    -2.5738   -16.6020 CH2           1 RES     
     594 CH2         49.5684    -3.0628   -17.2172 CH2           1 RES     
     595 CH2         49.5147    -2.9014   -18.7478 CH2           1 RES     
     596 CH2         50.8390    -3.3904   -19.3631 CH2           1 RES     
     597 CH2         50.7853    -3.2290   -20.8937 CH2           1 RES     
     598 C           52.0494    -3.6958   -21.4810 C             1 RES     
     599 N           10.9545     5.4772     0.0000 N             1 RES     
     600 C           11.7186     4.3205     0.3507 C             1 RES     
     601 C            9.6537     5.4465     0.3150 C             1 RES     
     602 C           11.5352     6.5395     0.5338 C             1 RES     
     603 CH2         11.1155     5.7086    -1.3635 CH2           1 RES     
     604 CH2         10.4315     4.4602    -1.9512 CH2           1 RES     
     605 P           11.8445     3.7865    -3.8962 P             1 RES     
     606 O           11.9498     3.8216    -5.4924 O             1 RES     
     607 O           10.4953     4.5118    -3.4339 O             1 RES     
     608 O           11.7964     2.2452    -3.4696 O             1 RES     
     609 O           13.1057     4.5931    -3.3316 O             1 RES     
     610 CH2         13.2104     3.1416    -5.8841 CH2           1 RES     
     611 CH2         13.0444     4.6620    -7.5230 CH2           1 RES     
     612 CH2         13.3469     3.1557    -7.4180 CH2           1 RES     
     613 C           14.2835     5.3255    -9.1559 C             1 RES     
     614 O           13.4031     4.7700    -9.8111 O             1 RES     
     615 O           14.3043     5.4072    -7.6582 O             1 RES     
     616 CH2         15.4019     5.6326    -9.9083 CH2           1 RES     
     617 CH2         14.9442     5.0795   -11.2707 CH2           1 RES     
     618 CH2         16.1292     5.0905   -12.2543 CH2           1 RES     
     619 CH2         15.6715     4.5374   -13.6167 CH2           1 RES     
     620 CH2         16.8564     4.5484   -14.6003 CH2           1 RES     
     621 CH2         16.3988     3.9953   -15.9627 CH2           1 RES     
     622 CH2         17.5837     4.0063   -16.9463 CH2           1 RES     
     623 CH2         17.1260     3.4532   -18.3087 CH2           1 RES     
     624 CH2         18.3110     3.4642   -19.2923 CH2           1 RES     
     625 CH2         17.8533     2.9111   -20.6547 CH2           1 RES     
     626 CH2         19.0382     2.9221   -21.6383 CH2           1 RES     
     627 CH2         18.5806     2.3690   -23.0007 CH2           1 RES     
     628 C           19.7117     2.3795   -23.9396 C             1 RES     
     629 C           15.2152     2.7757    -8.3342 C             1 RES     
     630 O           14.6335     3.2018    -9.3306 O             1 RES     
     631 O           14.5920     2.6495    -6.9756 O             1 RES     
     632 CH2         16.4169     2.1611    -8.6339 CH2           1 RES     
     633 CH2         16.4078     2.3310   -10.1644 CH2           1 RES     
     634 CH2         17.5555     1.5089   -10.7797 CH2           1 RES     
     635 CH2         17.5464     1.6788   -12.3103 CH2           1 RES     
     636 CH2         18.6942     0.8568   -12.9256 CH2           1 RES     
     637 CH2         18.6851     1.0266   -14.4561 CH2           1 RES     
     638 CH2         19.8328     0.2046   -15.0714 CH2           1 RES     
     639 CH2         19.8237     0.3745   -16.6020 CH2           1 RES     
     640 CH2         20.9715    -0.4476   -17.2172 CH2           1 RES     
     641 CH2         20.9624    -0.2777   -18.7478 CH2           1 RES     
     642 CH2         22.1101    -1.0998   -19.3631 CH2           1 RES     
     643 CH2         22.1010    -0.9299   -20.8937 CH2           1 RES     
     644 C           23.1966    -1.7146   -21.4810 C             1 RES     
     645 N            0.0000    16.4317     0.0000 N             1 RES     
     646 C            0.6743    15.2204     0.3507 C             1 RES     
     647 C           -1.2994    16.4996     0.3150 C             1 RES     
     648 C            0.6596    17.4469     0.5338 C             1 RES     
     649 CH2          0.1781    16.6502    -1.3635 CH2           1 RES     
     650 CH2         -0.5985    15.4572    -1.9512 CH2           1 RES     
     651 P            0.7594    14.6784    -3.8962 P             1 RES     
     652 O            0.8670    14.7054    -5.4924 O             1 RES     
     653 O           -0.5310    15.5038    -3.4339 O             1 RES     
     654 O            0.5947    13.1452    -3.4696 O             1 RES     
     655 O            2.0781    15.3871    -3.3316 O             1 RES     
     656 CH2          2.0726    13.9319    -5.8841 CH2           1 RES     
     657 CH2          2.0222    15.4605    -7.5230 CH2           1 RES     
     658 CH2          2.2097    13.9355    -7.4180 CH2           1 RES     
     659 C            3.3079    16.0282    -9.1559 C             1 RES     
     660 O            2.3880    15.5410    -9.8111 O             1 RES     
     661 O            3.3349    16.1081    -7.6582 O             1 RES     
     662 CH2          4.4464    16.2497    -9.9083 CH2           1 RES     
     663 CH2          3.9482    15.7329   -11.2707 CH2           1 RES     
     664 CH2          5.1305    15.6541   -12.2543 CH2           1 RES     
     665 CH2          4.6323    15.1372   -13.6167 CH2           1 RES     
     666 CH2          5.8147    15.0584   -14.6003 CH2           1 RES     
     667 CH2          5.3164    14.5416   -15.9627 CH2           1 RES     
     668 CH2          6.4988    14.4628   -16.9463 CH2           1 RES     
     669 CH2          6.0005    13.9459   -18.3087 CH2           1 RES     
     670 CH2          7.1829    13.8671   -19.2923 CH2           1 RES     
     671 CH2          6.6846    13.3503   -20.6547 CH2           1 RES     
     672 CH2          7.8670    13.2715   -21.6383 CH2           1 RES     
     673 CH2          7.3688    12.7546   -23.0007 CH2           1 RES     
     674 C            8.4974    12.6794   -23.9396 C             1 RES     
     675 C            4.0439    13.4151    -8.3342 C             1 RES     
     676 O            3.4962    13.8841    -9.3306 O             1 RES     
     677 O            3.4129    13.3365    -6.9756 O             1 RES     
     678 CH2          5.1955    12.7113    -8.6339 CH2           1 RES     
     679 CH2          5.1993    12.8814   -10.1644 CH2           1 RES     
     680 CH2          6.2815    11.9747   -10.7797 CH2           1 RES     
     681 CH2          6.2853    12.1448   -12.3103 CH2           1 RES     
     682 CH2          7.3675    11.2382   -12.9256 CH2           1 RES     
     683 CH2          7.3713    11.4082   -14.4561 CH2           1 RES     
     684 CH2          8.4534    10.5016   -15.0714 CH2           1 RES     
     685 CH2          8.4573    10.6717   -16.6020 CH2           1 RES     
     686 CH2          9.5394     9.7651   -17.2172 CH2           1 RES     
     687 CH2          9.5432     9.9351   -18.7478 CH2           1 RES     
     688 CH2         10.6254     9.0285   -19.3631 CH2           1 RES     
     689 CH2         10.6292     9.1986   -20.8937 CH2           1 RES     
     690 C           11.6622     8.3332   -21.4810 C             1 RES     
     691 N            0.0000    21.9089     0.0000 N             1 RES     
     692 C            1.0707    21.0283     0.3507 C             1 RES     
     693 C           -1.2341    21.4968     0.3150 C             1 RES     
     694 C            0.2425    23.0951     0.5338 C             1 RES     
     695 CH2          0.0858    22.1774    -1.3635 CH2           1 RES     
     696 CH2         -0.2006    20.7831    -1.9512 CH2           1 RES     
     697 P            1.3481    20.5550    -3.8962 P             1 RES     
     698 O            1.4384    20.6195    -5.4924 O             1 RES     
     699 O           -0.1548    20.8511    -3.4339 O             1 RES     
     700 O            1.7557    19.0677    -3.4696 O             1 RES     
     701 O            2.3162    21.6969    -3.3316 O             1 RES     
     702 CH2          2.8434    20.3405    -5.8841 CH2           1 RES     
     703 CH2          2.2373    21.7447    -7.5230 CH2           1 RES     
     704 CH2          2.9696    20.3941    -7.4180 CH2           1 RES     
     705 C            3.2263    22.7434    -9.1559 C             1 RES     
     706 O            2.5483    21.9535    -9.8111 O             1 RES     
     707 O            3.2221    22.8277    -7.6582 O             1 RES     
     708 CH2          4.2048    23.3661    -9.9083 CH2           1 RES     
     709 CH2          3.9302    22.7028   -11.2707 CH2           1 RES     
     710 CH2          5.0594    23.0620   -12.2543 CH2           1 RES     
     711 CH2          4.7848    22.3987   -13.6167 CH2           1 RES     
     712 CH2          5.9140    22.7579   -14.6003 CH2           1 RES     
     713 CH2          5.6393    22.0946   -15.9627 CH2           1 RES     
     714 CH2          6.7686    22.4538   -16.9463 CH2           1 RES     
     715 CH2          6.4939    21.7905   -18.3087 CH2           1 RES     
     716 CH2          7.6232    22.1497   -19.2923 CH2           1 RES     
     717 CH2          7.3485    21.4864   -20.6547 CH2           1 RES     
     718 CH2          8.4778    21.8456   -21.6383 CH2           1 RES     
     719 CH2          8.2031    21.1823   -23.0007 CH2           1 RES     
     720 C            9.2810    21.5251   -23.9396 C             1 RES     
     721 C            4.8671    20.5807    -8.3342 C             1 RES     
     722 O            4.1858    20.8168    -9.3306 O             1 RES     
     723 O            4.3086    20.2767    -6.9756 O             1 RES     
     724 CH2          6.1964    20.3469    -8.6339 CH2           1 RES     
     725 CH2          6.1377    20.5066   -10.1644 CH2           1 RES     
     726 CH2          7.4765    20.0587   -10.7797 CH2           1 RES     
     727 CH2          7.4178    20.2184   -12.3103 CH2           1 RES     
     728 CH2          8.7566    19.7704   -12.9256 CH2           1 RES     
     729 CH2          8.6980    19.9301   -14.4561 CH2           1 RES     
     730 CH2         10.0368    19.4822   -15.0714 CH2           1 RES     
     731 CH2          9.9781    19.6419   -16.6020 CH2           1 RES     
     732 CH2         11.3169    19.1939   -17.2172 CH2           1 RES     
     733 CH2         11.2583    19.3536   -18.7478 CH2           1 RES     
     734 CH2         12.5971    18.9057   -19.3631 CH2           1 RES     
     735 CH2         12.5384    19.0654   -20.8937 CH2           1 RES     
     736 C           13.8164    18.6378   -21.4810 C             1 RES     
     737 N           10.9545    38.3406     0.0000 N             1 RES     
     738 C           11.6409    37.1361     0.3507 C             1 RES     
     739 C            9.6545    38.3955     0.3150 C             1 RES     
     740 C           11.6039    39.3624     0.5338 C             1 RES     
     741 CH2         11.1304    38.5608    -1.3635 CH2           1 RES     
     742 CH2         10.3657    37.3602    -1.9512 CH2           1 RES     
     743 P           11.7313    36.5950    -3.8962 P             1 RES     
     744 O           11.8387    36.6231    -5.4924 O             1 RES     
     745 O           10.4328    37.4074    -3.4339 O             1 RES     
     746 O           11.5819    35.0602    -3.4696 O             1 RES     
     747 O           13.0429    37.3168    -3.3316 O             1 RES     
     748 CH2         13.0519    35.8616    -5.8841 CH2           1 RES     
     749 CH2         12.9862    37.3896    -7.5230 CH2           1 RES     
     750 CH2         13.1890    35.8666    -7.4180 CH2           1 RES     
     751 C           14.2663    37.9701    -9.1559 C             1 RES     
     752 O           13.3513    37.4738    -9.8111 O             1 RES     
     753 O           14.2924    38.0503    -7.6582 O             1 RES     
     754 CH2         15.4025    38.2031    -9.9083 CH2           1 RES     
     755 CH2         14.9094    37.6812   -11.2707 CH2           1 RES     
     756 CH2         16.0925    37.6143   -12.2543 CH2           1 RES     
     757 CH2         15.5994    37.0925   -13.6167 CH2           1 RES     
     758 CH2         16.7825    37.0255   -14.6003 CH2           1 RES     
     759 CH2         16.2895    36.5037   -15.9627 CH2           1 RES     
     760 CH2         17.4726    36.4367   -16.9463 CH2           1 RES     
     761 CH2         16.9795    35.9149   -18.3087 CH2           1 RES     
     762 CH2         18.1626    35.8479   -19.2923 CH2           1 RES     
     763 CH2         17.6695    35.3261   -20.6547 CH2           1 RES     
     764 CH2         18.8526    35.2591   -21.6383 CH2           1 RES     
     765 CH2         18.3596    34.7373   -23.0007 CH2           1 RES     
     766 C           19.4889    34.6734   -23.9396 C             1 RES     
     767 C           15.0282    35.3645    -8.3342 C             1 RES     
     768 O           14.4759    35.8281    -9.3306 O             1 RES     
     769 O           14.3981    35.2797    -6.9756 O             1 RES     
     770 CH2         16.1869    34.6723    -8.6339 CH2           1 RES     
     771 CH2         16.1890    34.8424   -10.1644 CH2           1 RES     
     772 CH2         17.2801    33.9466   -10.7797 CH2           1 RES     
     773 CH2         17.2823    34.1167   -12.3103 CH2           1 RES     
     774 CH2         18.3734    33.2209   -12.9256 CH2           1 RES     
     775 CH2         18.3755    33.3910   -14.4561 CH2           1 RES     
     776 CH2         19.4667    32.4953   -15.0714 CH2           1 RES     
     777 CH2         19.4688    32.6654   -16.6020 CH2           1 RES     
     778 CH2         20.5600    31.7696   -17.2172 CH2           1 RES     
     779 CH2         20.5621    31.9397   -18.7478 CH2           1 RES     
     780 CH2         21.6533    31.0439   -19.3631 CH2           1 RES     
     781 CH2         21.6554    31.2140   -20.8937 CH2           1 RES     
     782 C           22.6969    30.3590   -21.4810 C             1 RES     
     783 N           38.3406    38.3406     0.0000 N             1 RES     
     784 C           38.9969    37.1195     0.3507 C             1 RES     
     785 C           37.0424    38.4277     0.3150 C             1 RES     
     786 C           39.0151    39.3460     0.5338 C             1 RES     
     787 CH2         38.5219    38.5564    -1.3635 CH2           1 RES     
     788 CH2         37.7277    37.3751    -1.9512 CH2           1 RES     
     789 P           39.0740    36.5763    -3.8962 P             1 RES     
     790 O           39.1820    36.6017    -5.4924 O             1 RES     
     791 O           37.7959    37.4206    -3.4339 O             1 RES     
     792 O           38.8866    35.0456    -3.4696 O             1 RES     
     793 O           40.4030    37.2654    -3.3316 O             1 RES     
     794 CH2         40.3760    35.8104    -5.8841 CH2           1 RES     
     795 CH2         40.3482    37.3396    -7.5230 CH2           1 RES     
     796 CH2         40.5131    35.8121    -7.4180 CH2           1 RES     
     797 C           41.6422    37.8882    -9.1559 C             1 RES     
     798 O           40.7152    37.4147    -9.8111 O             1 RES     
     799 O           41.6703    37.9678    -7.6582 O             1 RES     
     800 CH2         42.7838    38.0929    -9.9083 CH2           1 RES     
     801 CH2         42.2780    37.5835   -11.2707 CH2           1 RES     
     802 CH2         43.4591    37.4872   -12.2543 CH2           1 RES     
     803 CH2         42.9532    36.9778   -13.6167 CH2           1 RES     
     804 CH2         44.1343    36.8816   -14.6003 CH2           1 RES     
     805 CH2         43.6285    36.3721   -15.9627 CH2           1 RES     
     806 CH2         44.8095    36.2759   -16.9463 CH2           1 RES     
     807 CH2         44.3037    35.7664   -18.3087 CH2           1 RES     
     808 CH2         45.4848    35.6702   -19.2923 CH2           1 RES     
     809 CH2         44.9790    35.1607   -20.6547 CH2           1 RES     
     810 CH2         46.1600    35.0645   -21.6383 CH2           1 RES     
     811 CH2         45.6542    34.5550   -23.0007 CH2           1 RES     
     812 C           46.7816    34.4632   -23.9396 C             1 RES     
     813 C           42.3394    35.2646    -8.3342 C             1 RES     
     814 O           41.7987    35.7416    -9.3306 O             1 RES     
     815 O           41.7073    35.1953    -6.9756 O             1 RES     
     816 CH2         43.4805    34.5438    -8.6339 CH2           1 RES     
     817 CH2         43.4869    34.7138   -10.1644 CH2           1 RES     
     818 CH2         44.5555    33.7913   -10.7797 CH2           1 RES     
     819 CH2         44.5618    33.9613   -12.3103 CH2           1 RES     
     820 CH2         45.6305    33.0388   -12.9256 CH2           1 RES     
     821 CH2         45.6368    33.2088   -14.4561 CH2           1 RES     
     822 CH2         46.7055    32.2862   -15.0714 CH2           1 RES     
     823 CH2         46.7118    32.4562   -16.6020 CH2           1 RES     
     824 CH2         47.7804    31.5337   -17.2172 CH2           1 RES     
     825 CH2         47.7868    31.7037   -18.7478 CH2           1 RES     
     826 CH2         48.8554    30.7812   -19.3631 CH2           1 RES     
     827 CH2         48.8617    30.9512   -20.8937 CH2           1 RES     
     828 C           49.8818    30.0706   -21.4810 C             1 RES     
     829 N           21.9089     0.0000     0.0000 N             1 RES     
     830 C           22.7268    -1.1193     0.3507 C             1 RES     
     831 C           20.6110    -0.0921     0.3150 C             1 RES     
     832 C           22.4389     1.0886     0.5338 C             1 RES     
     833 CH2         22.0588     0.2387    -1.3635 CH2           1 RES     
     834 CH2         21.4345    -1.0405    -1.9512 CH2           1 RES     
     835 P           22.8778    -1.6468    -3.8962 P             1 RES     
     836 O           22.9813    -1.6067    -5.4924 O             1 RES     
     837 O           21.4958    -0.9860    -3.4339 O             1 RES     
     838 O           22.9025    -3.1886    -3.4696 O             1 RES     
     839 O           24.0995    -0.7816    -3.3316 O             1 RES     
     840 CH2         24.2727    -2.2265    -5.8841 CH2           1 RES     
     841 CH2         24.0350    -0.7156    -7.5230 CH2           1 RES     
     842 CH2         24.4083    -2.2060    -7.4180 CH2           1 RES     
     843 C           25.2414     0.0056    -9.1559 C             1 RES     
     844 O           24.3882    -0.5908    -9.8111 O             1 RES     
     845 O           25.2583     0.0883    -7.6582 O             1 RES     
     846 CH2         26.3440     0.3653    -9.9083 CH2           1 RES     
     847 CH2         25.9130    -0.2088   -11.2707 CH2           1 RES     
     848 CH2         27.0961    -0.1419   -12.2543 CH2           1 RES     
     849 CH2         26.6651    -0.7160   -13.6167 CH2           1 RES     
     850 CH2         27.8482    -0.6491   -14.6003 CH2           1 RES     
     851 CH2         27.4171    -1.2232   -15.9627 CH2           1 RES     
     852 CH2         28.6002    -1.1562   -16.9463 CH2           1 RES     
     853 CH2         28.1692    -1.7303   -18.3087 CH2           1 RES     
     854 CH2         29.3523    -1.6634   -19.2923 CH2           1 RES     
     855 CH2         28.9213    -2.2375   -20.6547 CH2           1 RES     
     856 CH2         30.1043    -2.1705   -21.6383 CH2           1 RES     
     857 CH2         29.6733    -2.7447   -23.0007 CH2           1 RES     
     858 C           30.8026    -2.6808   -23.9396 C             1 RES     
     859 C           26.2925    -2.4973    -8.3342 C             1 RES     
     860 O           25.6914    -2.0991    -9.3306 O             1 RES     
     861 O           25.6759    -2.6528    -6.9756 O             1 RES     
     862 CH2         27.5218    -3.0545    -8.6339 CH2           1 RES     
     863 CH2         27.5047    -2.8852   -10.1644 CH2           1 RES     
     864 CH2         28.6900    -3.6521   -10.7797 CH2           1 RES     
     865 CH2         28.6729    -3.4829   -12.3103 CH2           1 RES     
     866 CH2         29.8582    -4.2498   -12.9256 CH2           1 RES     
     867 CH2         29.8411    -4.0806   -14.4561 CH2           1 RES     
     868 CH2         31.0264    -4.8475   -15.0714 CH2           1 RES     
     869 CH2         31.0093    -4.6782   -16.6020 CH2           1 RES     
     870 CH2         32.1945    -5.4451   -17.2172 CH2           1 RES     
     871 CH2         32.1775    -5.2759   -18.7478 CH2           1 RES     
     872 CH2         33.3627    -6.0428   -19.3631 CH2           1 RES     
     873 CH2         33.3456    -5.8736   -20.8937 CH2           1 RES     
     874 C           34.4770    -6.6056   -21.4810 C             1 RES     
     875 N            0.0000     5.4772     0.0000 N             1 RES     
     876 C            0.6200     4.2373     0.3507 C             1 RES     
     877 C           -1.2951     5.6026     0.3150 C             1 RES     
     878 C            0.7039     6.4623     0.5338 C             1 RES     
     879 CH2          0.1876     5.6876    -1.3635 CH2           1 RES     
     880 CH2         -0.6411     4.5303    -1.9512 CH2           1 RES     
     881 P            0.6810     3.6921    -3.8962 P             1 RES     
     882 O            0.7897     3.7143    -5.4924 O             1 RES     
     883 O           -0.5716     4.5738    -3.4339 O             1 RES     
     884 O            0.4485     2.1676    -3.4696 O             1 RES     
     885 O            2.0298     4.3416    -3.3316 O             1 RES     
     886 CH2          1.9598     2.8880    -5.8841 CH2           1 RES     
     887 CH2          1.9772     4.4174    -7.5230 CH2           1 RES     
     888 CH2          2.0969     2.8856    -7.4180 CH2           1 RES     
     889 C            3.2868     4.9276    -9.1559 C             1 RES     
     890 O            2.3462     4.4816    -9.8111 O             1 RES     
     891 O            3.3173     5.0062    -7.6582 O             1 RES     
     892 CH2          4.4340     5.0985    -9.9083 CH2           1 RES     
     893 CH2          3.9134     4.6042   -11.2707 CH2           1 RES     
     894 CH2          5.0911     4.4731   -12.2543 CH2           1 RES     
     895 CH2          4.5704     3.9788   -13.6167 CH2           1 RES     
     896 CH2          5.7481     3.8477   -14.6003 CH2           1 RES     
     897 CH2          5.2275     3.3535   -15.9627 CH2           1 RES     
     898 CH2          6.4052     3.2224   -16.9463 CH2           1 RES     
     899 CH2          5.8845     2.7281   -18.3087 CH2           1 RES     
     900 CH2          7.0622     2.5970   -19.2923 CH2           1 RES     
     901 CH2          6.5416     2.1027   -20.6547 CH2           1 RES     
     902 CH2          7.7193     1.9716   -21.6383 CH2           1 RES     
     903 CH2          7.1986     1.4774   -23.0007 CH2           1 RES     
     904 C            8.3228     1.3522   -23.9396 C             1 RES     
     905 C            3.9063     2.2845    -8.3342 C             1 RES     
     906 O            3.3799     2.7773    -9.3306 O             1 RES     
     907 O            3.2724     2.2339    -6.9756 O             1 RES     
     908 CH2          5.0256     1.5303    -8.6339 CH2           1 RES     
     909 CH2          5.0369     1.7001   -10.1644 CH2           1 RES     
     910 CH2          6.0779     0.7464   -10.7797 CH2           1 RES     
     911 CH2          6.0892     0.9161   -12.3103 CH2           1 RES     
     912 CH2          7.1301    -0.0376   -12.9256 CH2           1 RES     
     913 CH2          7.1415     0.1322   -14.4561 CH2           1 RES     
     914 CH2          8.1824    -0.8215   -15.0714 CH2           1 RES     
     915 CH2          8.1938    -0.6518   -16.6020 CH2           1 RES     
     916 CH2          9.2347    -1.6054   -17.2172 CH2           1 RES     
     917 CH2          9.2461    -1.4357   -18.7478 CH2           1 RES     
     918 CH2         10.2870    -2.3894   -19.3631 CH2           1 RES     
     919 CH2         10.2983    -2.2196   -20.8937 CH2           1 RES     
     920 C           11.2920    -3.1300   -21.4810 C             1 RES     
     921 N           10.9545    32.8634     0.0000 N             1 RES     
     922 C           11.5431    31.6082     0.3507 C             1 RES     
     923 C            9.6629    33.0213     0.3150 C             1 RES     
     924 C           11.6829    33.8304     0.5338 C             1 RES     
     925 CH2         11.1473    33.0689    -1.3635 CH2           1 RES     
     926 CH2         10.2897    31.9328    -1.9512 CH2           1 RES     
     927 P           11.5903    31.0616    -3.8962 P             1 RES     
     928 O           11.6995    31.0811    -5.4924 O             1 RES     
     929 O           10.3603    31.9746    -3.4339 O             1 RES     
     930 O           11.3195    29.5435    -3.4696 O             1 RES     
     931 O           12.9550    31.6770    -3.3316 O             1 RES     
     932 CH2         12.8485    30.2257    -5.8841 CH2           1 RES     
     933 CH2         12.9043    31.7541    -7.5230 CH2           1 RES     
     934 CH2         12.9855    30.2198    -7.4180 CH2           1 RES     
     935 C           14.2264    32.2312    -9.1559 C             1 RES     
     936 O           13.2749    31.8090    -9.8111 O             1 RES     
     937 O           14.2588    32.3090    -7.6582 O             1 RES     
     938 CH2         15.3775    32.3731    -9.9083 CH2           1 RES     
     939 CH2         14.8446    31.8921   -11.2707 CH2           1 RES     
     940 CH2         16.0186    31.7314   -12.2543 CH2           1 RES     
     941 CH2         15.4857    31.2504   -13.6167 CH2           1 RES     
     942 CH2         16.6597    31.0897   -14.6003 CH2           1 RES     
     943 CH2         16.1268    30.6087   -15.9627 CH2           1 RES     
     944 CH2         17.3008    30.4480   -16.9463 CH2           1 RES     
     945 CH2         16.7679    29.9670   -18.3087 CH2           1 RES     
     946 CH2         17.9419    29.8063   -19.2923 CH2           1 RES     
     947 CH2         17.4090    29.3253   -20.6547 CH2           1 RES     
     948 CH2         18.5831    29.1646   -21.6383 CH2           1 RES     
     949 CH2         18.0501    28.6836   -23.0007 CH2           1 RES     
     950 C           19.1708    28.5302   -23.9396 C             1 RES     
     951 C           14.7791    29.5733    -8.3342 C             1 RES     
     952 O           14.2653    30.0792    -9.3306 O             1 RES     
     953 O           14.1442    29.5387    -6.9756 O             1 RES     
     954 CH2         15.8791    28.7912    -8.6339 CH2           1 RES     
     955 CH2         15.8947    28.9606   -10.1644 CH2           1 RES     
     956 CH2         16.9113    27.9810   -10.7797 CH2           1 RES     
     957 CH2         16.9269    28.1504   -12.3103 CH2           1 RES     
     958 CH2         17.9435    27.1709   -12.9256 CH2           1 RES     
     959 CH2         17.9592    27.3403   -14.4561 CH2           1 RES     
     960 CH2         18.9758    26.3607   -15.0714 CH2           1 RES     
     961 CH2         18.9914    26.5301   -16.6020 CH2           1 RES     
     962 CH2         20.0080    25.5505   -17.2172 CH2           1 RES     
     963 CH2         20.0236    25.7199   -18.7478 CH2           1 RES     
     964 CH2         21.0402    24.7403   -19.3631 CH2           1 RES     
     965 CH2         21.0558    24.9097   -20.8937 CH2           1 RES     
     966 C           22.0262    23.9747   -21.4810 C             1 RES     
     967 N            5.4772    21.9089     0.0000 N             1 RES     
     968 C            6.3573    20.8377     0.3507 C             1 RES     
     969 C            4.1867    21.7434     0.3150 C             1 RES     
     970 C            5.9447    23.0257     0.5338 C             1 RES     
     971 CH2          5.6134    22.1557    -1.3635 CH2           1 RES     
     972 CH2          5.0625    20.8432    -1.9512 CH2           1 RES     
     973 P            6.5378    20.3197    -3.8962 P             1 RES     
     974 O            6.6389    20.3655    -5.4924 O             1 RES     
     975 O            5.1207    20.9010    -3.4339 O             1 RES     
     976 O            6.6499    18.7817    -3.4696 O             1 RES     
     977 O            7.7086    21.2527    -3.3316 O             1 RES     
     978 CH2          7.9633    19.8199    -5.8841 CH2           1 RES     
     979 CH2          7.6405    21.3149    -7.5230 CH2           1 RES     
     980 CH2          8.0976    19.8480    -7.4180 CH2           1 RES     
     981 C            8.8040    22.1033    -9.1559 C             1 RES     
     982 O            7.9860    21.4595    -9.8111 O             1 RES     
     983 O            8.8162    22.1868    -7.6582 O             1 RES     
     984 CH2          9.8846    22.5248    -9.9083 CH2           1 RES     
     985 CH2          9.4867    21.9272   -11.2707 CH2           1 RES     
     986 CH2         10.6641    22.0611   -12.2543 CH2           1 RES     
     987 CH2         10.2663    21.4635   -13.6167 CH2           1 RES     
     988 CH2         11.4437    21.5973   -14.6003 CH2           1 RES     
     989 CH2         11.0459    20.9997   -15.9627 CH2           1 RES     
     990 CH2         12.2233    21.1336   -16.9463 CH2           1 RES     
     991 CH2         11.8255    20.5360   -18.3087 CH2           1 RES     
     992 CH2         13.0029    20.6698   -19.2923 CH2           1 RES     
     993 CH2         12.6051    20.0722   -20.6547 CH2           1 RES     
     994 CH2         13.7825    20.2061   -21.6383 CH2           1 RES     
     995 CH2         13.3846    19.6085   -23.0007 CH2           1 RES     
     996 C           14.5085    19.7363   -23.9396 C             1 RES     
     997 C            9.9952    19.6639    -8.3342 C             1 RES     
     998 O            9.3725    20.0274    -9.3306 O             1 RES     
     999 O            9.3885    19.4738    -6.9756 O             1 RES     
    1000 CH2         11.2542    19.1773    -8.6339 CH2           1 RES     
    1001 CH2         11.2275    19.3453   -10.1644 CH2           1 RES     
    1002 CH2         12.4543    18.6468   -10.7797 CH2           1 RES     
    1003 CH2         12.4277    18.8148   -12.3103 CH2           1 RES     
    1004 CH2         13.6545    18.1162   -12.9256 CH2           1 RES     
    1005 CH2         13.6278    18.2843   -14.4561 CH2           1 RES     
    1006 CH2         14.8546    17.5857   -15.0714 CH2           1 RES     
    1007 CH2         14.8280    17.7537   -16.6020 CH2           1 RES     
    1008 CH2         16.0548    17.0552   -17.2172 CH2           1 RES     
    1009 CH2         16.0282    17.2232   -18.7478 CH2           1 RES     
    1010 CH2         17.2550    16.5246   -19.3631 CH2           1 RES     
    1011 CH2         17.2283    16.6926   -20.8937 CH2           1 RES     
    1012 C           18.3994    16.0258   -21.4810 C             1 RES     
    1013 N           21.9089    21.9089     0.0000 N             1 RES     
    1014 C           22.9309    20.9722     0.3507 C             1 RES     
    1015 C           20.6545    21.5634     0.3150 C             1 RES     
    1016 C           22.2145    23.0804     0.5338 C             1 RES     
    1017 CH2         22.0090    22.1724    -1.3635 CH2           1 RES     
    1018 CH2         21.6483    20.7954    -1.9512 CH2           1 RES     
    1019 P           23.1826    20.4847    -3.8962 P             1 RES     
    1020 O           23.2762    20.5443    -5.4924 O             1 RES     
    1021 O           21.6977    20.8609    -3.4339 O             1 RES     
    1022 O           23.5100    18.9778    -3.4696 O             1 RES     
    1023 O           24.2104    21.5732    -3.3316 O             1 RES     
    1024 CH2         24.6643    20.1906    -5.8841 CH2           1 RES     
    1025 CH2         24.1342    21.6252    -7.5230 CH2           1 RES     
    1026 CH2         24.7932    20.2373    -7.4180 CH2           1 RES     
    1027 C           25.1752    22.5695    -9.1559 C             1 RES     
    1028 O           24.4560    21.8171    -9.8111 O             1 RES     
    1029 O           25.1756    22.6539    -7.6582 O             1 RES     
    1030 CH2         26.1857    23.1389    -9.9083 CH2           1 RES     
    1031 CH2         25.8759    22.4913   -11.2707 CH2           1 RES     
    1032 CH2         27.0228    22.7895   -12.2543 CH2           1 RES     
    1033 CH2         26.7130    22.1419   -13.6167 CH2           1 RES     
    1034 CH2         27.8599    22.4401   -14.6003 CH2           1 RES     
    1035 CH2         27.5501    21.7925   -15.9627 CH2           1 RES     
    1036 CH2         28.6969    22.0907   -16.9463 CH2           1 RES     
    1037 CH2         28.3872    21.4430   -18.3087 CH2           1 RES     
    1038 CH2         29.5340    21.7413   -19.2923 CH2           1 RES     
    1039 CH2         29.2243    21.0936   -20.6547 CH2           1 RES     
    1040 CH2         30.3711    21.3918   -21.6383 CH2           1 RES     
    1041 CH2         30.0614    20.7442   -23.0007 CH2           1 RES     
    1042 C           31.1561    21.0289   -23.9396 C             1 RES     
    1043 C           26.6979    20.3221    -8.3342 C             1 RES     
    1044 O           26.0302    20.5943    -9.3306 O             1 RES     
    1045 O           26.1239    20.0484    -6.9756 O             1 RES     
    1046 CH2         28.0128    20.0175    -8.6339 CH2           1 RES     
    1047 CH2         27.9627    20.1801   -10.1644 CH2           1 RES     
    1048 CH2         29.2756    19.6611   -10.7797 CH2           1 RES     
    1049 CH2         29.2256    19.8237   -12.3103 CH2           1 RES     
    1050 CH2         30.5385    19.3048   -12.9256 CH2           1 RES     
    1051 CH2         30.4885    19.4674   -14.4561 CH2           1 RES     
    1052 CH2         31.8014    18.9484   -15.0714 CH2           1 RES     
    1053 CH2         31.7514    19.1110   -16.6020 CH2           1 RES     
    1054 CH2         33.0643    18.5921   -17.2172 CH2           1 RES     
    1055 CH2         33.0143    18.7547   -18.7478 CH2           1 RES     
    1056 CH2         34.3272    18.2357   -19.3631 CH2           1 RES     
    1057 CH2         34.2771    18.3983   -20.8937 CH2           1 RES     
    1058 C           35.5304    17.9029   -21.4810 C             1 RES     
    1059 N           10.9545    27.3861     0.0000 N             1 RES     
    1060 C           11.9934    26.4682     0.3507 C             1 RES     
    1061 C            9.7065    27.0178     0.3150 C             1 RES     
    1062 C           11.2387    28.5630     0.5338 C             1 RES     
    1063 CH2         11.0497    27.6514    -1.3635 CH2           1 RES     
    1064 CH2         10.7142    26.2681    -1.9512 CH2           1 RES     
    1065 P           12.2539    25.9854    -3.8962 P             1 RES     
    1066 O           12.3464    26.0467    -5.4924 O             1 RES     
    1067 O           10.7624    26.3344    -3.4339 O             1 RES     
    1068 O           12.6087    24.4847    -3.4696 O             1 RES     
    1069 O           13.2617    27.0925    -3.3316 O             1 RES     
    1070 CH2         13.7407    25.7183    -5.8841 CH2           1 RES     
    1071 CH2         13.1846    27.1431    -7.5230 CH2           1 RES     
    1072 CH2         13.8687    25.7674    -7.4180 CH2           1 RES     
    1073 C           14.2082    28.1062    -9.1559 C             1 RES     
    1074 O           13.5028    27.3407    -9.8111 O             1 RES     
    1075 O           14.2070    28.1906    -7.6582 O             1 RES     
    1076 CH2         15.2081    28.6939    -9.9083 CH2           1 RES     
    1077 CH2         14.9102    28.0408   -11.2707 CH2           1 RES     
    1078 CH2         16.0514    28.3598   -12.2543 CH2           1 RES     
    1079 CH2         15.7535    27.7067   -13.6167 CH2           1 RES     
    1080 CH2         16.8947    28.0257   -14.6003 CH2           1 RES     
    1081 CH2         16.5968    27.3726   -15.9627 CH2           1 RES     
    1082 CH2         17.7381    27.6916   -16.9463 CH2           1 RES     
    1083 CH2         17.4402    27.0384   -18.3087 CH2           1 RES     
    1084 CH2         18.5814    27.3575   -19.2923 CH2           1 RES     
    1085 CH2         18.2835    26.7043   -20.6547 CH2           1 RES     
    1086 CH2         19.4247    27.0234   -21.6383 CH2           1 RES     
    1087 CH2         19.1268    26.3702   -23.0007 CH2           1 RES     
    1088 C           20.2161    26.6748   -23.9396 C             1 RES     
    1089 C           15.7716    25.8869    -8.3342 C             1 RES     
    1090 O           15.0990    26.1469    -9.3306 O             1 RES     
    1091 O           15.2027    25.6028    -6.9756 O             1 RES     
    1092 CH2         17.0918    25.6063    -8.6339 CH2           1 RES     
    1093 CH2         17.0388    25.7680   -10.1644 CH2           1 RES     
    1094 CH2         18.3609    25.2730   -10.7797 CH2           1 RES     
    1095 CH2         18.3080    25.4347   -12.3103 CH2           1 RES     
    1096 CH2         19.6301    24.9398   -12.9256 CH2           1 RES     
    1097 CH2         19.5771    25.1014   -14.4561 CH2           1 RES     
    1098 CH2         20.8993    24.6065   -15.0714 CH2           1 RES     
    1099 CH2         20.8463    24.7681   -16.6020 CH2           1 RES     
    1100 CH2         22.1685    24.2732   -17.2172 CH2           1 RES     
    1101 CH2         22.1155    24.4349   -18.7478 CH2           1 RES     
    1102 CH2         23.4376    23.9399   -19.3631 CH2           1 RES     
    1103 CH2         23.3846    24.1016   -20.8937 CH2           1 RES     
    1104 C           24.6467    23.6292   -21.4810 C             1 RES     
    1105 N           21.9089    16.4317     0.0000 N             1 RES     
    1106 C           22.5944    15.2267     0.3507 C             1 RES     
    1107 C           20.6090    16.4876     0.3150 C             1 RES     
    1108 C           22.5591    17.4530     0.5338 C             1 RES     
    1109 CH2         22.0850    16.6518    -1.3635 CH2           1 RES     
    1110 CH2         21.3194    15.4518    -1.9512 CH2           1 RES     
    1111 P           22.6844    14.6855    -3.8962 P             1 RES     
    1112 O           22.7918    14.7135    -5.4924 O             1 RES     
    1113 O           21.3865    15.4989    -3.4339 O             1 RES     
    1114 O           22.5338    13.1508    -3.4696 O             1 RES     
    1115 O           23.9966    15.4063    -3.3316 O             1 RES     
    1116 CH2         24.0044    13.9511    -5.8841 CH2           1 RES     
    1117 CH2         23.9399    15.4791    -7.5230 CH2           1 RES     
    1118 CH2         24.1415    13.9560    -7.4180 CH2           1 RES     
    1119 C           25.2204    16.0587    -9.1559 C             1 RES     
    1120 O           24.3050    15.5630    -9.8111 O             1 RES     
    1121 O           25.2466    16.1388    -7.6582 O             1 RES     
    1122 CH2         26.3568    16.2907    -9.9083 CH2           1 RES     
    1123 CH2         25.8634    15.7693   -11.2707 CH2           1 RES     
    1124 CH2         27.0464    15.7014   -12.2543 CH2           1 RES     
    1125 CH2         26.5529    15.1799   -13.6167 CH2           1 RES     
    1126 CH2         27.7360    15.1120   -14.6003 CH2           1 RES     
    1127 CH2         27.2425    14.5906   -15.9627 CH2           1 RES     
    1128 CH2         28.4255    14.5227   -16.9463 CH2           1 RES     
    1129 CH2         27.9321    14.0013   -18.3087 CH2           1 RES     
    1130 CH2         29.1151    13.9334   -19.2923 CH2           1 RES     
    1131 CH2         28.6216    13.4120   -20.6547 CH2           1 RES     
    1132 CH2         29.8047    13.3441   -21.6383 CH2           1 RES     
    1133 CH2         29.3112    12.8227   -23.0007 CH2           1 RES     
    1134 C           30.4405    12.7578   -23.9396 C             1 RES     
    1135 C           25.9804    13.4525    -8.3342 C             1 RES     
    1136 O           25.4284    13.9164    -9.3306 O             1 RES     
    1137 O           25.3501    13.3681    -6.9756 O             1 RES     
    1138 CH2         27.1384    12.7593    -8.6339 CH2           1 RES     
    1139 CH2         27.1407    12.9294   -10.1644 CH2           1 RES     
    1140 CH2         28.2312    12.0328   -10.7797 CH2           1 RES     
    1141 CH2         28.2334    12.2029   -12.3103 CH2           1 RES     
    1142 CH2         29.3239    11.3062   -12.9256 CH2           1 RES     
    1143 CH2         29.3261    11.4763   -14.4561 CH2           1 RES     
    1144 CH2         30.4166    10.5797   -15.0714 CH2           1 RES     
    1145 CH2         30.4188    10.7498   -16.6020 CH2           1 RES     
    1146 CH2         31.5093     9.8532   -17.2172 CH2           1 RES     
    1147 CH2         31.5116    10.0233   -18.7478 CH2           1 RES     
    1148 CH2         32.6020     9.1267   -19.3631 CH2           1 RES     
    1149 CH2         32.6043     9.2968   -20.8937 CH2           1 RES     
    1150 C           33.6452     8.4409   -21.4810 C             1 RES     
    1151 N            5.4772    10.9545     0.0000 N             1 RES     
    1152 C            5.9925     9.6675     0.3507 C             1 RES     
    1153 C            4.1970    11.1865     0.3150 C             1 RES     
    1154 C            6.2602    11.8779     0.5338 C             1 RES     
    1155 CH2          5.6816    11.1486    -1.3635 CH2           1 RES     
    1156 CH2          4.7600    10.0638    -1.9512 CH2           1 RES     
    1157 P            6.0082     9.1191    -3.8962 P             1 RES     
    1158 O            6.1184     9.1322    -5.4924 O             1 RES     
    1159 O            4.8329    10.1014    -3.4339 O             1 RES     
    1160 O            5.6504     7.6191    -3.4696 O             1 RES     
    1161 O            7.4061     9.6548    -3.3316 O             1 RES     
    1162 CH2          7.2161     8.2120    -5.8841 CH2           1 RES     
    1163 CH2          7.3600     9.7347    -7.5230 CH2           1 RES     
    1164 CH2          7.3526     8.1983    -7.4180 CH2           1 RES     
    1165 C            8.7073    10.1348    -9.1559 C             1 RES     
    1166 O            7.7330     9.7682    -9.8111 O             1 RES     
    1167 O            8.7442    10.2107    -7.6582 O             1 RES     
    1168 CH2          9.8647    10.2102    -9.9083 CH2           1 RES     
    1169 CH2          9.3049     9.7607   -11.2707 CH2           1 RES     
    1170 CH2         10.4678     9.5326   -12.2543 CH2           1 RES     
    1171 CH2          9.9080     9.0831   -13.6167 CH2           1 RES     
    1172 CH2         11.0708     8.8550   -14.6003 CH2           1 RES     
    1173 CH2         10.5111     8.4055   -15.9627 CH2           1 RES     
    1174 CH2         11.6739     8.1775   -16.9463 CH2           1 RES     
    1175 CH2         11.1142     7.7279   -18.3087 CH2           1 RES     
    1176 CH2         12.2770     7.4999   -19.2923 CH2           1 RES     
    1177 CH2         11.7172     7.0504   -20.6547 CH2           1 RES     
    1178 CH2         12.8801     6.8223   -21.6383 CH2           1 RES     
    1179 CH2         12.3203     6.3728   -23.0007 CH2           1 RES     
    1180 C           13.4303     6.1551   -23.9396 C             1 RES     
    1181 C            9.1060     7.4495    -8.3342 C             1 RES     
    1182 O            8.6222     7.9842    -9.3306 O             1 RES     
    1183 O            8.4701     7.4515    -6.9756 O             1 RES     
    1184 CH2         10.1591     6.6053    -8.6339 CH2           1 RES     
    1185 CH2         10.1844     6.7736   -10.1644 CH2           1 RES     
    1186 CH2         11.1429     5.7370   -10.7797 CH2           1 RES     
    1187 CH2         11.1683     5.9052   -12.3103 CH2           1 RES     
    1188 CH2         12.1267     4.8687   -12.9256 CH2           1 RES     
    1189 CH2         12.1521     5.0369   -14.4561 CH2           1 RES     
    1190 CH2         13.1106     4.0004   -15.0714 CH2           1 RES     
    1191 CH2         13.1359     4.1686   -16.6020 CH2           1 RES     
    1192 CH2         14.0944     3.1321   -17.2172 CH2           1 RES     
    1193 CH2         14.1197     3.3003   -18.7478 CH2           1 RES     
    1194 CH2         15.0782     2.2638   -19.3631 CH2           1 RES     
    1195 CH2         15.1036     2.4320   -20.8937 CH2           1 RES     
    1196 C           16.0185     1.4426   -21.4810 C             1 RES     
    1197 N           27.3861    27.3861     0.0000 N             1 RES     
    1198 C           27.9402    26.1154     0.3507 C             1 RES     
    1199 C           26.0994    27.5793     0.3150 C             1 RES     
    1200 C           28.1408    28.3329     0.5338 C             1 RES     
    1201 CH2         27.5845    27.5864    -1.3635 CH2           1 RES     
    1202 CH2         26.6962    26.4741    -1.9512 CH2           1 RES     
    1203 P           27.9725    25.5677    -3.8962 P             1 RES     
    1204 O           28.0822    25.5842    -5.4924 O             1 RES     
    1205 O           26.7679    26.5139    -3.4339 O             1 RES     
    1206 O           27.6603    24.0575    -3.4696 O             1 RES     
    1207 O           29.3535    26.1455    -3.3316 O             1 RES     
    1208 CH2         29.2074    24.6977    -5.8841 CH2           1 RES     
    1209 CH2         29.3050    26.2240    -7.5230 CH2           1 RES     
    1210 CH2         29.3442    24.6881    -7.4180 CH2           1 RES     
    1211 C           30.6396    26.6648    -9.1559 C             1 RES     
    1212 O           29.6769    26.2688    -9.8111 O             1 RES     
    1213 O           30.6741    26.7417    -7.6582 O             1 RES     
    1214 CH2         31.7942    26.7752    -9.9083 CH2           1 RES     
    1215 CH2         31.2483    26.3089   -11.2707 CH2           1 RES     
    1216 CH2         32.4175    26.1162   -12.2543 CH2           1 RES     
    1217 CH2         31.8716    25.6500   -13.6167 CH2           1 RES     
    1218 CH2         33.0408    25.4572   -14.6003 CH2           1 RES     
    1219 CH2         32.4949    24.9910   -15.9627 CH2           1 RES     
    1220 CH2         33.6641    24.7983   -16.9463 CH2           1 RES     
    1221 CH2         33.1183    24.3320   -18.3087 CH2           1 RES     
    1222 CH2         34.2875    24.1393   -19.2923 CH2           1 RES     
    1223 CH2         33.7416    23.6730   -20.6547 CH2           1 RES     
    1224 CH2         34.9108    23.4803   -21.6383 CH2           1 RES     
    1225 CH2         34.3649    23.0140   -23.0007 CH2           1 RES     
    1226 C           35.4810    22.8300   -23.9396 C             1 RES     
    1227 C           31.1195    23.9928    -8.3342 C             1 RES     
    1228 O           30.6197    24.5125    -9.3306 O             1 RES     
    1229 O           30.4838    23.9755    -6.9756 O             1 RES     
    1230 CH2         32.1977    23.1809    -8.6339 CH2           1 RES     
    1231 CH2         32.2179    23.3498   -10.1644 CH2           1 RES     
    1232 CH2         33.2074    22.3428   -10.7797 CH2           1 RES     
    1233 CH2         33.2276    22.5118   -12.3103 CH2           1 RES     
    1234 CH2         34.2171    21.5048   -12.9256 CH2           1 RES     
    1235 CH2         34.2373    21.6737   -14.4561 CH2           1 RES     
    1236 CH2         35.2267    20.6667   -15.0714 CH2           1 RES     
    1237 CH2         35.2470    20.8356   -16.6020 CH2           1 RES     
    1238 CH2         36.2364    19.8286   -17.2172 CH2           1 RES     
    1239 CH2         36.2567    19.9975   -18.7478 CH2           1 RES     
    1240 CH2         37.2461    18.9905   -19.3631 CH2           1 RES     
    1241 CH2         37.2664    19.1594   -20.8937 CH2           1 RES     
    1242 C           38.2108    18.1982   -21.4810 C             1 RES     
    1243 N            5.4772     5.4772     0.0000 N             1 RES     
    1244 C            6.4329     4.4730     0.3507 C             1 RES     
    1245 C            4.2021     5.2182     0.3150 C             1 RES     
    1246 C            5.8621     6.6251     0.5338 C             1 RES     
    1247 CH2          5.5951     5.7333    -1.3635 CH2           1 RES     
    1248 CH2          5.1413     4.3841    -1.9512 CH2           1 RES     
    1249 P            6.6508     3.9695    -3.8962 P             1 RES     
    1250 O            6.7482     4.0225    -5.4924 O             1 RES     
    1251 O            5.1950     4.4461    -3.4339 O             1 RES     
    1252 O            6.8745     2.4437    -3.4696 O             1 RES     
    1253 O            7.7505     4.9853    -3.3316 O             1 RES     
    1254 CH2          8.1089     3.5748    -5.8841 CH2           1 RES     
    1255 CH2          7.6780     5.0423    -7.5230 CH2           1 RES     
    1256 CH2          8.2407     3.6127    -7.4180 CH2           1 RES     
    1257 C            8.7810     5.9134    -9.1559 C             1 RES     
    1258 O            8.0121     5.2118    -9.8111 O             1 RES     
    1259 O            8.7871     5.9975    -7.6582 O             1 RES     
    1260 CH2          9.8280     6.4125    -9.9083 CH2           1 RES     
    1261 CH2          9.4748     5.7875   -11.2707 CH2           1 RES     
    1262 CH2         10.6393     6.0068   -12.2543 CH2           1 RES     
    1263 CH2         10.2860     5.3818   -13.6167 CH2           1 RES     
    1264 CH2         11.4506     5.6010   -14.6003 CH2           1 RES     
    1265 CH2         11.0973     4.9761   -15.9627 CH2           1 RES     
    1266 CH2         12.2619     5.1953   -16.9463 CH2           1 RES     
    1267 CH2         11.9086     4.5703   -18.3087 CH2           1 RES     
    1268 CH2         13.0731     4.7896   -19.2923 CH2           1 RES     
    1269 CH2         12.7199     4.1646   -20.6547 CH2           1 RES     
    1270 CH2         13.8844     4.3838   -21.6383 CH2           1 RES     
    1271 CH2         13.5312     3.7589   -23.0007 CH2           1 RES     
    1272 C           14.6428     3.9681   -23.9396 C             1 RES     
    1273 C           10.1468     3.5672    -8.3342 C             1 RES     
    1274 O            9.4992     3.8845    -9.3306 O             1 RES     
    1275 O            9.5554     3.3334    -6.9756 O             1 RES     
    1276 CH2         11.4378     3.1736    -8.6339 CH2           1 RES     
    1277 CH2         11.3990     3.3393   -10.1644 CH2           1 RES     
    1278 CH2         12.6734     2.7319   -10.7797 CH2           1 RES     
    1279 CH2         12.6346     2.8976   -12.3103 CH2           1 RES     
    1280 CH2         13.9090     2.2902   -12.9256 CH2           1 RES     
    1281 CH2         13.8702     2.4558   -14.4561 CH2           1 RES     
    1282 CH2         15.1446     1.8485   -15.0714 CH2           1 RES     
    1283 CH2         15.1058     2.0141   -16.6020 CH2           1 RES     
    1284 CH2         16.3802     1.4068   -17.2172 CH2           1 RES     
    1285 CH2         16.3414     1.5724   -18.7478 CH2           1 RES     
    1286 CH2         17.6158     0.9651   -19.3631 CH2           1 RES     
    1287 CH2         17.5770     1.1307   -20.8937 CH2           1 RES     
    1288 C           18.7935     0.5510   -21.4810 C             1 RES     
    1289 N           27.3861    32.8634     0.0000 N             1 RES     
    1290 C           28.3672    31.8838     0.3507 C             1 RES     
    1291 C           26.1181    32.5718     0.3150 C             1 RES     
    1292 C           27.7416    34.0207     0.5338 C             1 RES     
    1293 CH2         27.4974    33.1223    -1.3635 CH2           1 RES     
    1294 CH2         27.0782    31.7620    -1.9512 CH2           1 RES     
    1295 P           28.5978    31.3860    -3.8962 P             1 RES     
    1296 O           28.6939    31.4416    -5.4924 O             1 RES     
    1297 O           27.1304    31.8253    -3.4339 O             1 RES     
    1298 O           28.8604    29.8665    -3.4696 O             1 RES     
    1299 O           29.6712    32.4296    -3.3316 O             1 RES     
    1300 CH2         30.0655    31.0288    -5.8841 CH2           1 RES     
    1301 CH2         29.5973    32.4848    -7.5230 CH2           1 RES     
    1302 CH2         30.1963    31.0700    -7.4180 CH2           1 RES     
    1303 C           30.6777    33.3837    -9.1559 C             1 RES     
    1304 O           29.9269    32.6627    -9.8111 O             1 RES     
    1305 O           30.6817    33.4680    -7.6582 O             1 RES     
    1306 CH2         31.7116    33.9094    -9.9083 CH2           1 RES     
    1307 CH2         31.3744    33.2756   -11.2707 CH2           1 RES     
    1308 CH2         32.5330    33.5245   -12.2543 CH2           1 RES     
    1309 CH2         32.1958    32.8907   -13.6167 CH2           1 RES     
    1310 CH2         33.3544    33.1396   -14.6003 CH2           1 RES     
    1311 CH2         33.0172    32.5058   -15.9627 CH2           1 RES     
    1312 CH2         34.1757    32.7548   -16.9463 CH2           1 RES     
    1313 CH2         33.8386    32.1209   -18.3087 CH2           1 RES     
    1314 CH2         34.9971    32.3699   -19.2923 CH2           1 RES     
    1315 CH2         34.6600    31.7361   -20.6547 CH2           1 RES     
    1316 CH2         35.8185    31.9850   -21.6383 CH2           1 RES     
    1317 CH2         35.4813    31.3512   -23.0007 CH2           1 RES     
    1318 C           36.5872    31.5888   -23.9396 C             1 RES     
    1319 C           32.1029    31.0732    -8.3342 C             1 RES     
    1320 O           31.4475    31.3738    -9.3306 O             1 RES     
    1321 O           31.5178    30.8244    -6.9756 O             1 RES     
    1322 CH2         33.4035    30.7127    -8.6339 CH2           1 RES     
    1323 CH2         33.3605    30.8773   -10.1644 CH2           1 RES     
    1324 CH2         34.6500    30.3027   -10.7797 CH2           1 RES     
    1325 CH2         34.6070    30.4673   -12.3103 CH2           1 RES     
    1326 CH2         35.8965    29.8926   -12.9256 CH2           1 RES     
    1327 CH2         35.8535    30.0572   -14.4561 CH2           1 RES     
    1328 CH2         37.1430    29.4826   -15.0714 CH2           1 RES     
    1329 CH2         37.1000    29.6472   -16.6020 CH2           1 RES     
    1330 CH2         38.3895    29.0726   -17.2172 CH2           1 RES     
    1331 CH2         38.3465    29.2372   -18.7478 CH2           1 RES     
    1332 CH2         39.6360    28.6626   -19.3631 CH2           1 RES     
    1333 CH2         39.5930    28.8272   -20.8937 CH2           1 RES     
    1334 C           40.8239    28.2787   -21.4810 C             1 RES     
    1335 N           21.9089     5.4772     0.0000 N             1 RES     
    1336 C           22.8876     4.4953     0.3507 C             1 RES     
    1337 C           20.6401     5.1888     0.3150 C             1 RES     
    1338 C           22.2672     6.6337     0.5338 C             1 RES     
    1339 CH2         22.0208     5.7359    -1.3635 CH2           1 RES     
    1340 CH2         21.5983     4.3766    -1.9512 CH2           1 RES     
    1341 P           23.1169     3.9970    -3.8962 P             1 RES     
    1342 O           23.2132     4.0523    -5.4924 O             1 RES     
    1343 O           21.6506     4.4398    -3.4339 O             1 RES     
    1344 O           23.3759     2.4768    -3.4696 O             1 RES     
    1345 O           24.1929     5.0379    -3.3316 O             1 RES     
    1346 CH2         24.5838     3.6361    -5.8841 CH2           1 RES     
    1347 CH2         24.1191     5.0933    -7.5230 CH2           1 RES     
    1348 CH2         24.7147     3.6770    -7.4180 CH2           1 RES     
    1349 C           25.2017     5.9896    -9.1559 C             1 RES     
    1350 O           24.4492     5.2704    -9.8111 O             1 RES     
    1351 O           25.2059     6.0739    -7.6582 O             1 RES     
    1352 CH2         26.2369     6.5128    -9.9083 CH2           1 RES     
    1353 CH2         25.8982     5.8798   -11.2707 CH2           1 RES     
    1354 CH2         27.0573     6.1259   -12.2543 CH2           1 RES     
    1355 CH2         26.7186     5.4929   -13.6167 CH2           1 RES     
    1356 CH2         27.8778     5.7390   -14.6003 CH2           1 RES     
    1357 CH2         27.5391     5.1060   -15.9627 CH2           1 RES     
    1358 CH2         28.6982     5.3521   -16.9463 CH2           1 RES     
    1359 CH2         28.3595     4.7191   -18.3087 CH2           1 RES     
    1360 CH2         29.5187     4.9652   -19.2923 CH2           1 RES     
    1361 CH2         29.1800     4.3322   -20.6547 CH2           1 RES     
    1362 CH2         30.3391     4.5783   -21.6383 CH2           1 RES     
    1363 CH2         30.0004     3.9454   -23.0007 CH2           1 RES     
    1364 C           31.1069     4.1803   -23.9396 C             1 RES     
    1365 C           26.6213     3.6756    -8.3342 C             1 RES     
    1366 O           25.9666     3.9778    -9.3306 O             1 RES     
    1367 O           26.0356     3.4282    -6.9756 O             1 RES     
    1368 CH2         27.9211     3.3119    -8.6339 CH2           1 RES     
    1369 CH2         27.8784     3.4766   -10.1644 CH2           1 RES     
    1370 CH2         29.1666     2.8989   -10.7797 CH2           1 RES     
    1371 CH2         29.1239     3.0636   -12.3103 CH2           1 RES     
    1372 CH2         30.4120     2.4858   -12.9256 CH2           1 RES     
    1373 CH2         30.3694     2.6505   -14.4561 CH2           1 RES     
    1374 CH2         31.6575     2.0728   -15.0714 CH2           1 RES     
    1375 CH2         31.6149     2.2375   -16.6020 CH2           1 RES     
    1376 CH2         32.9030     1.6597   -17.2172 CH2           1 RES     
    1377 CH2         32.8604     1.8244   -18.7478 CH2           1 RES     
    1378 CH2         34.1485     1.2467   -19.3631 CH2           1 RES     
    1379 CH2         34.1059     1.4114   -20.8937 CH2           1 RES     
    1380 C           35.3355     0.8599   -21.4810 C             1 RES     
    1381 N            5.4772    27.3861     0.0000 N             1 RES     
    1382 C            6.2561    26.2393     0.3507 C             1 RES     
    1383 C            4.1769    27.3388     0.3150 C             1 RES     
    1384 C            6.0444    28.4558     0.5338 C             1 RES     
    1385 CH2          5.6353    27.6195    -1.3635 CH2           1 RES     
    1386 CH2          4.9672    26.3626    -1.9512 CH2           1 RES     
    1387 P            6.3887    25.7069    -3.8962 P             1 RES     
    1388 O            6.4936    25.7434    -5.4924 O             1 RES     
    1389 O            5.0304    26.4149    -3.4339 O             1 RES     
    1390 O            6.3603    24.1651    -3.4696 O             1 RES     
    1391 O            7.6396    26.5295    -3.3316 O             1 RES     
    1392 CH2          7.7628    25.0795    -5.8841 CH2           1 RES     
    1393 CH2          7.5774    26.5976    -7.5230 CH2           1 RES     
    1394 CH2          7.8991    25.0953    -7.4180 CH2           1 RES     
    1395 C            8.8079    27.2769    -9.1559 C             1 RES     
    1396 O            7.9347    26.7102    -9.8111 O             1 RES     
    1397 O            8.8277    27.3589    -7.6582 O             1 RES     
    1398 CH2          9.9223    27.5983    -9.9083 CH2           1 RES     
    1399 CH2          9.4718    27.0394   -11.2707 CH2           1 RES     
    1400 CH2         10.6564    27.0655   -12.2543 CH2           1 RES     
    1401 CH2         10.2059    26.5066   -13.6167 CH2           1 RES     
    1402 CH2         11.3906    26.5327   -14.6003 CH2           1 RES     
    1403 CH2         10.9400    25.9738   -15.9627 CH2           1 RES     
    1404 CH2         12.1247    25.9999   -16.9463 CH2           1 RES     
    1405 CH2         11.6741    25.4410   -18.3087 CH2           1 RES     
    1406 CH2         12.8588    25.4671   -19.2923 CH2           1 RES     
    1407 CH2         12.4083    24.9082   -20.6547 CH2           1 RES     
    1408 CH2         13.5930    24.9343   -21.6383 CH2           1 RES     
    1409 CH2         13.1424    24.3754   -23.0007 CH2           1 RES     
    1410 C           14.2732    24.4003   -23.9396 C             1 RES     
    1411 C            9.7721    24.7391    -8.3342 C             1 RES     
    1412 O            9.1851    25.1578    -9.3306 O             1 RES     
    1413 O            9.1505    24.6050    -6.9756 O             1 RES     
    1414 CH2         10.9815    24.1400    -8.6339 CH2           1 RES     
    1415 CH2         10.9702    24.3097   -10.1644 CH2           1 RES     
    1416 CH2         12.1284    23.5024   -10.7797 CH2           1 RES     
    1417 CH2         12.1171    23.6721   -12.3103 CH2           1 RES     
    1418 CH2         13.2753    22.8648   -12.9256 CH2           1 RES     
    1419 CH2         13.2640    23.0345   -14.4561 CH2           1 RES     
    1420 CH2         14.4221    22.2272   -15.0714 CH2           1 RES     
    1421 CH2         14.4109    22.3969   -16.6020 CH2           1 RES     
    1422 CH2         15.5690    21.5896   -17.2172 CH2           1 RES     
    1423 CH2         15.5578    21.7593   -18.7478 CH2           1 RES     
    1424 CH2         16.7159    20.9520   -19.3631 CH2           1 RES     
    1425 CH2         16.7046    21.1217   -20.8937 CH2           1 RES     
    1426 C           17.8101    20.3511   -21.4810 C             1 RES     
    1427 N           38.3406    21.9089     0.0000 N             1 RES     
    1428 C           39.1169    20.7603     0.3507 C             1 RES     
    1429 C           37.0402    21.8645     0.3150 C             1 RES     
    1430 C           38.9102    22.9773     0.5338 C             1 RES     
    1431 CH2         38.4992    22.1419    -1.3635 CH2           1 RES     
    1432 CH2         37.8283    20.8865    -1.9512 CH2           1 RES     
    1433 P           39.2483    20.2277    -3.8962 P             1 RES     
    1434 O           39.3533    20.2639    -5.4924 O             1 RES     
    1435 O           37.8916    20.9387    -3.4339 O             1 RES     
    1436 O           39.2165    18.6859    -3.4696 O             1 RES     
    1437 O           40.5010    21.0474    -3.3316 O             1 RES     
    1438 CH2         40.6210    19.5971    -5.8841 CH2           1 RES     
    1439 CH2         40.4390    21.1157    -7.5230 CH2           1 RES     
    1440 CH2         40.7573    19.6126    -7.4180 CH2           1 RES     
    1441 C           41.6710    21.7922    -9.1559 C             1 RES     
    1442 O           40.7965    21.2275    -9.8111 O             1 RES     
    1443 O           41.6909    21.8741    -7.6582 O             1 RES     
    1444 CH2         42.7861    22.1111    -9.9083 CH2           1 RES     
    1445 CH2         42.3343    21.5532   -11.2707 CH2           1 RES     
    1446 CH2         43.5191    21.5767   -12.2543 CH2           1 RES     
    1447 CH2         43.0673    21.0188   -13.6167 CH2           1 RES     
    1448 CH2         44.2520    21.0422   -14.6003 CH2           1 RES     
    1449 CH2         43.8002    20.4843   -15.9627 CH2           1 RES     
    1450 CH2         44.9849    20.5078   -16.9463 CH2           1 RES     
    1451 CH2         44.5331    19.9499   -18.3087 CH2           1 RES     
    1452 CH2         45.7179    19.9734   -19.2923 CH2           1 RES     
    1453 CH2         45.2660    19.4155   -20.6547 CH2           1 RES     
    1454 CH2         46.4508    19.4389   -21.6383 CH2           1 RES     
    1455 CH2         45.9990    18.8810   -23.0007 CH2           1 RES     
    1456 C           47.1299    18.9034   -23.9396 C             1 RES     
    1457 C           42.6295    19.2523    -8.3342 C             1 RES     
    1458 O           42.0434    19.6723    -9.3306 O             1 RES     
    1459 O           42.0077    19.1196    -6.9756 O             1 RES     
    1460 CH2         43.8376    18.6504    -8.6339 CH2           1 RES     
    1461 CH2         43.8267    18.8202   -10.1644 CH2           1 RES     
    1462 CH2         44.9830    18.0103   -10.7797 CH2           1 RES     
    1463 CH2         44.9722    18.1800   -12.3103 CH2           1 RES     
    1464 CH2         46.1285    17.3701   -12.9256 CH2           1 RES     
    1465 CH2         46.1176    17.5399   -14.4561 CH2           1 RES     
    1466 CH2         47.2739    16.7299   -15.0714 CH2           1 RES     
    1467 CH2         47.2631    16.8997   -16.6020 CH2           1 RES     
    1468 CH2         48.4194    16.0898   -17.2172 CH2           1 RES     
    1469 CH2         48.4085    16.2596   -18.7478 CH2           1 RES     
    1470 CH2         49.5648    15.4496   -19.3631 CH2           1 RES     
    1471 CH2         49.5540    15.6194   -20.8937 CH2           1 RES     
    1472 C           50.6577    14.8463   -21.4810 C             1 RES     
    1473 C           16.7010    37.9302    -3.1278 C             1 RES     
    1474 O           16.4317    38.3406    -2.0000 O             1 RES     
    1475 O           16.4245    36.5383    -3.6139 O             1 RES     
    1476 CH2         17.0323    38.9458    -4.0054 CH2           1 RES     
    1477 CH2         17.3055    38.1051    -5.2665 CH2           1 RES     
    1478 CH2         17.9307    38.9981    -6.3542 CH2           1 RES     
    1479 CH2         18.2039    38.1574    -7.6152 CH2           1 RES     
    1480 CH2         18.8291    39.0505    -8.7030 CH2           1 RES     
    1481 CH2         19.1023    38.2097    -9.9640 CH2           1 RES     
    1482 CH2         19.7275    39.1028   -11.0517 CH2           1 RES     
    1483 CH2         20.0007    38.2621   -12.3127 CH2           1 RES     
    1484 CH2         20.6259    39.1551   -13.4005 CH2           1 RES     
    1485 CH2         20.8991    38.3144   -14.6615 CH2           1 RES     
    1486 CH2         21.5243    39.2075   -15.7492 CH2           1 RES     
    1487 CH2         21.7975    38.3668   -17.0102 CH2           1 RES     
    1488 CH2         22.4227    39.2598   -18.0980 CH2           1 RES     
    1489 CH2         22.6959    38.4191   -19.3590 CH2           1 RES     
    1490 CH2         23.3211    39.3121   -20.4467 CH2           1 RES     
    1491 C           23.5819    38.5096   -21.6504 C             1 RES     
    1492 C           20.4148    32.5520   -24.1162 C             1 RES     
    1493 CH2         16.1888    35.6695    -4.7507 CH2           1 RES     
    1494 CH2         16.9660    36.1973    -5.9709 CH2           1 RES     
    1495 CH2         16.7156    35.2746    -7.1782 CH2           1 RES     
    1496 CH2         17.4928    35.8024    -8.3985 CH2           1 RES     
    1497 CH2         17.2424    34.8797    -9.6058 CH2           1 RES     
    1498 CH2         18.0196    35.4074   -10.8260 CH2           1 RES     
    1499 CH2         17.7693    34.4847   -12.0333 CH2           1 RES     
    1500 CH2         18.5465    35.0125   -13.2536 CH2           1 RES     
    1501 CH2         18.2961    34.0898   -14.4609 CH2           1 RES     
    1502 CH2         19.0733    34.6176   -15.6811 CH2           1 RES     
    1503 CH2         18.8229    33.6949   -16.8884 CH2           1 RES     
    1504 CH2         19.6001    34.2226   -18.1087 CH2           1 RES     
    1505 CH2         19.3498    33.2999   -19.3159 CH2           1 RES     
    1506 CH2         20.1270    33.8277   -20.5362 CH2           1 RES     
    1507 CH2         19.8766    32.9050   -21.7435 CH2           1 RES     
    1508 CH2         20.6538    33.4328   -22.9638 CH2           1 RES     
    1509 C           33.0727     5.0333    -3.1278 C             1 RES     
    1510 O           32.8634     5.4772    -2.0000 O             1 RES     
    1511 O           32.6047     3.6936    -3.6139 O             1 RES     
    1512 CH2         33.5425     5.9927    -4.0054 CH2           1 RES     
    1513 CH2         33.6957     5.1221    -5.2665 CH2           1 RES     
    1514 CH2         34.4394     5.9191    -6.3542 CH2           1 RES     
    1515 CH2         34.5926     5.0485    -7.6152 CH2           1 RES     
    1516 CH2         35.3364     5.8456    -8.7030 CH2           1 RES     
    1517 CH2         35.4895     4.9750    -9.9640 CH2           1 RES     
    1518 CH2         36.2333     5.7720   -11.0517 CH2           1 RES     
    1519 CH2         36.3865     4.9014   -12.3127 CH2           1 RES     
    1520 CH2         37.1302     5.6985   -13.4005 CH2           1 RES     
    1521 CH2         37.2834     4.8278   -14.6615 CH2           1 RES     
    1522 CH2         38.0271     5.6249   -15.7492 CH2           1 RES     
    1523 CH2         38.1803     4.7543   -17.0102 CH2           1 RES     
    1524 CH2         38.9240     5.5513   -18.0980 CH2           1 RES     
    1525 CH2         39.0772     4.6807   -19.3590 CH2           1 RES     
    1526 CH2         39.8209     5.4778   -20.4467 CH2           1 RES     
    1527 C           39.9671     4.6467   -21.6504 C             1 RES     
    1528 C           35.9996    -0.8106   -24.1162 C             1 RES     
    1529 CH2         32.2500     2.8662    -4.7507 CH2           1 RES     
    1530 CH2         33.0933     3.2804    -5.9709 CH2           1 RES     
    1531 CH2         32.7166     2.4016    -7.1782 CH2           1 RES     
    1532 CH2         33.5598     2.8158    -8.3985 CH2           1 RES     
    1533 CH2         33.1832     1.9370    -9.6058 CH2           1 RES     
    1534 CH2         34.0264     2.3512   -10.8260 CH2           1 RES     
    1535 CH2         33.6497     1.4724   -12.0333 CH2           1 RES     
    1536 CH2         34.4930     1.8866   -13.2536 CH2           1 RES     
    1537 CH2         34.1163     1.0079   -14.4609 CH2           1 RES     
    1538 CH2         34.9595     1.4220   -15.6811 CH2           1 RES     
    1539 CH2         34.5828     0.5433   -16.8884 CH2           1 RES     
    1540 CH2         35.4261     0.9574   -18.1087 CH2           1 RES     
    1541 CH2         35.0494     0.0787   -19.3159 CH2           1 RES     
    1542 CH2         35.8926     0.4928   -20.5362 CH2           1 RES     
    1543 CH2         35.5160    -0.3859   -21.7435 CH2           1 RES     
    1544 CH2         36.3592     0.0282   -22.9638 CH2           1 RES     
    1545 C           16.6497    15.9919    -3.1278 C             1 RES     
    1546 O           16.4317    16.4317    -2.0000 O             1 RES     
    1547 O           16.2078    14.6434    -3.6139 O             1 RES     
    1548 CH2         17.1007    16.9603    -4.0054 CH2           1 RES     
    1549 CH2         17.2708    16.0928    -5.2665 CH2           1 RES     
    1550 CH2         17.9989    16.9042    -6.3542 CH2           1 RES     
    1551 CH2         18.1690    16.0367    -7.6152 CH2           1 RES     
    1552 CH2         18.8970    16.8481    -8.7030 CH2           1 RES     
    1553 CH2         19.0671    15.9806    -9.9640 CH2           1 RES     
    1554 CH2         19.7952    16.7920   -11.0517 CH2           1 RES     
    1555 CH2         19.9653    15.9246   -12.3127 CH2           1 RES     
    1556 CH2         20.6934    16.7359   -13.4005 CH2           1 RES     
    1557 CH2         20.8635    15.8685   -14.6615 CH2           1 RES     
    1558 CH2         21.5916    16.6799   -15.7492 CH2           1 RES     
    1559 CH2         21.7617    15.8124   -17.0102 CH2           1 RES     
    1560 CH2         22.4897    16.6238   -18.0980 CH2           1 RES     
    1561 CH2         22.6598    15.7563   -19.3590 CH2           1 RES     
    1562 CH2         23.3879    16.5677   -20.4467 CH2           1 RES     
    1563 C           23.5503    15.7397   -21.6504 C             1 RES     
    1564 C           19.6898    10.2061   -24.1162 C             1 RES     
    1565 CH2         15.8693    13.8092    -4.7507 CH2           1 RES     
    1566 CH2         16.7043    14.2397    -5.9709 CH2           1 RES     
    1567 CH2         16.3448    13.3538    -7.1782 CH2           1 RES     
    1568 CH2         17.1799    13.7843    -8.3985 CH2           1 RES     
    1569 CH2         16.8204    12.8984    -9.6058 CH2           1 RES     
    1570 CH2         17.6554    13.3289   -10.8260 CH2           1 RES     
    1571 CH2         17.2959    12.4430   -12.0333 CH2           1 RES     
    1572 CH2         18.1309    12.8734   -13.2536 CH2           1 RES     
    1573 CH2         17.7714    11.9875   -14.4609 CH2           1 RES     
    1574 CH2         18.6064    12.4180   -15.6811 CH2           1 RES     
    1575 CH2         18.2469    11.5321   -16.8884 CH2           1 RES     
    1576 CH2         19.0819    11.9626   -18.1087 CH2           1 RES     
    1577 CH2         18.7224    11.0767   -19.3159 CH2           1 RES     
    1578 CH2         19.5574    11.5072   -20.5362 CH2           1 RES     
    1579 CH2         19.1979    10.6213   -21.7435 CH2           1 RES     
    1580 CH2         20.0330    11.0518   -22.9638 CH2           1 RES     
    1581 C            0.3290    37.9763    -3.1278 C             1 RES     
    1582 O            0.0000    38.3406    -2.0000 O             1 RES     
    1583 O            0.2692    36.5585    -3.6139 O             1 RES     
    1584 CH2          0.5007    39.0307    -4.0054 CH2           1 RES     
    1585 CH2          0.8996    38.2418    -5.2665 CH2           1 RES     
    1586 CH2          1.3805    39.2201    -6.3542 CH2           1 RES     
    1587 CH2          1.7793    38.4313    -7.6152 CH2           1 RES     
    1588 CH2          2.2602    39.4096    -8.7030 CH2           1 RES     
    1589 CH2          2.6591    38.6207    -9.9640 CH2           1 RES     
    1590 CH2          3.1400    39.5991   -11.0517 CH2           1 RES     
    1591 CH2          3.5388    38.8102   -12.3127 CH2           1 RES     
    1592 CH2          4.0197    39.7885   -13.4005 CH2           1 RES     
    1593 CH2          4.4186    38.9996   -14.6615 CH2           1 RES     
    1594 CH2          4.8995    39.9780   -15.7492 CH2           1 RES     
    1595 CH2          5.2983    39.1891   -17.0102 CH2           1 RES     
    1596 CH2          5.7793    40.1674   -18.0980 CH2           1 RES     
    1597 CH2          6.1781    39.3785   -19.3590 CH2           1 RES     
    1598 CH2          6.6590    40.3569   -20.4467 CH2           1 RES     
    1599 C            7.0397    39.6038   -21.6504 C             1 RES     
    1600 C            4.8235    33.2311   -24.1162 C             1 RES     
    1601 CH2          0.1695    35.6639    -4.7507 CH2           1 RES     
    1602 CH2          0.8565    36.3046    -5.9709 CH2           1 RES     
    1603 CH2          0.7506    35.3544    -7.1782 CH2           1 RES     
    1604 CH2          1.4377    35.9951    -8.3985 CH2           1 RES     
    1605 CH2          1.3318    35.0449    -9.6058 CH2           1 RES     
    1606 CH2          2.0188    35.6856   -10.8260 CH2           1 RES     
    1607 CH2          1.9129    34.7354   -12.0333 CH2           1 RES     
    1608 CH2          2.6000    35.3761   -13.2536 CH2           1 RES     
    1609 CH2          2.4941    34.4259   -14.4609 CH2           1 RES     
    1610 CH2          3.1812    35.0666   -15.6811 CH2           1 RES     
    1611 CH2          3.0752    34.1164   -16.8884 CH2           1 RES     
    1612 CH2          3.7623    34.7571   -18.1087 CH2           1 RES     
    1613 CH2          3.6564    33.8069   -19.3159 CH2           1 RES     
    1614 CH2          4.3435    34.4476   -20.5362 CH2           1 RES     
    1615 CH2          4.2375    33.4974   -21.7435 CH2           1 RES     
    1616 CH2          4.9246    34.1381   -22.9638 CH2           1 RES     
    1617 C            0.2140    -0.4418    -3.1278 C             1 RES     
    1618 O            0.0000     0.0000    -2.0000 O             1 RES     
    1619 O           -0.2400    -1.7862    -3.6139 O             1 RES     
    1620 CH2          0.6737     0.5225    -4.0054 CH2           1 RES     
    1621 CH2          0.8360    -0.3464    -5.2665 CH2           1 RES     
    1622 CH2          1.5714     0.4584    -6.3542 CH2           1 RES     
    1623 CH2          1.7337    -0.4106    -7.6152 CH2           1 RES     
    1624 CH2          2.4690     0.3942    -8.7030 CH2           1 RES     
    1625 CH2          2.6313    -0.4748    -9.9640 CH2           1 RES     
    1626 CH2          3.3667     0.3300   -11.0517 CH2           1 RES     
    1627 CH2          3.5289    -0.5389   -12.3127 CH2           1 RES     
    1628 CH2          4.2643     0.2659   -13.4005 CH2           1 RES     
    1629 CH2          4.4266    -0.6031   -14.6615 CH2           1 RES     
    1630 CH2          5.1619     0.2017   -15.7492 CH2           1 RES     
    1631 CH2          5.3242    -0.6673   -17.0102 CH2           1 RES     
    1632 CH2          6.0596     0.1375   -18.0980 CH2           1 RES     
    1633 CH2          6.2218    -0.7314   -19.3590 CH2           1 RES     
    1634 CH2          6.9572     0.0733   -20.4467 CH2           1 RES     
    1635 C            7.1121    -0.7561   -21.6504 C             1 RES     
    1636 C            3.2019    -6.2547   -24.1162 C             1 RES     
    1637 CH2         -0.5860    -2.6173    -4.7507 CH2           1 RES     
    1638 CH2          0.2529    -2.1943    -5.9709 CH2           1 RES     
    1639 CH2         -0.1146    -3.0770    -7.1782 CH2           1 RES     
    1640 CH2          0.7243    -2.6540    -8.3985 CH2           1 RES     
    1641 CH2          0.3568    -3.5366    -9.6058 CH2           1 RES     
    1642 CH2          1.1957    -3.1137   -10.8260 CH2           1 RES     
    1643 CH2          0.8282    -3.9963   -12.0333 CH2           1 RES     
    1644 CH2          1.6671    -3.5734   -13.2536 CH2           1 RES     
    1645 CH2          1.2996    -4.4560   -14.4609 CH2           1 RES     
    1646 CH2          2.1385    -4.0331   -15.6811 CH2           1 RES     
    1647 CH2          1.7710    -4.9157   -16.8884 CH2           1 RES     
    1648 CH2          2.6099    -4.4928   -18.1087 CH2           1 RES     
    1649 CH2          2.2424    -5.3754   -19.3159 CH2           1 RES     
    1650 CH2          3.0813    -4.9525   -20.5362 CH2           1 RES     
    1651 CH2          2.7138    -5.8351   -21.7435 CH2           1 RES     
    1652 CH2          3.5527    -5.4122   -22.9638 CH2           1 RES     
    1653 C            5.7295    32.4422    -3.1278 C             1 RES     
    1654 O            5.4772    32.8634    -2.0000 O             1 RES     
    1655 O            5.3961    31.0629    -3.6139 O             1 RES     
    1656 CH2          6.1021    33.4434    -4.0054 CH2           1 RES     
    1657 CH2          6.3406    32.5922    -5.2665 CH2           1 RES     
    1658 CH2          7.0019    33.4588    -6.3542 CH2           1 RES     
    1659 CH2          7.2404    32.6076    -7.6152 CH2           1 RES     
    1660 CH2          7.9017    33.4743    -8.7030 CH2           1 RES     
    1661 CH2          8.1402    32.6231    -9.9640 CH2           1 RES     
    1662 CH2          8.8015    33.4897   -11.0517 CH2           1 RES     
    1663 CH2          9.0400    32.6385   -12.3127 CH2           1 RES     
    1664 CH2          9.7013    33.5052   -13.4005 CH2           1 RES     
    1665 CH2          9.9398    32.6539   -14.6615 CH2           1 RES     
    1666 CH2         10.6011    33.5206   -15.7492 CH2           1 RES     
    1667 CH2         10.8396    32.6694   -17.0102 CH2           1 RES     
    1668 CH2         11.5009    33.5360   -18.0980 CH2           1 RES     
    1669 CH2         11.7394    32.6848   -19.3590 CH2           1 RES     
    1670 CH2         12.4007    33.5515   -20.4467 CH2           1 RES     
    1671 C           12.6283    32.7390   -21.6504 C             1 RES     
    1672 C            9.2195    26.9163   -24.1162 C             1 RES     
    1673 CH2          5.1249    30.2045    -4.7507 CH2           1 RES     
    1674 CH2          5.9231    30.7000    -5.9709 CH2           1 RES     
    1675 CH2          5.6351    29.7883    -7.1782 CH2           1 RES     
    1676 CH2          6.4333    30.2838    -8.3985 CH2           1 RES     
    1677 CH2          6.1453    29.3721    -9.6058 CH2           1 RES     
    1678 CH2          6.9435    29.8675   -10.8260 CH2           1 RES     
    1679 CH2          6.6555    28.9559   -12.0333 CH2           1 RES     
    1680 CH2          7.4537    29.4513   -13.2536 CH2           1 RES     
    1681 CH2          7.1657    28.5397   -14.4609 CH2           1 RES     
    1682 CH2          7.9639    29.0351   -15.6811 CH2           1 RES     
    1683 CH2          7.6759    28.1235   -16.8884 CH2           1 RES     
    1684 CH2          8.4741    28.6189   -18.1087 CH2           1 RES     
    1685 CH2          8.1861    27.7072   -19.3159 CH2           1 RES     
    1686 CH2          8.9843    28.2027   -20.5362 CH2           1 RES     
    1687 CH2          8.6963    27.2910   -21.7435 CH2           1 RES     
    1688 CH2          9.4944    27.7865   -22.9638 CH2           1 RES     
    1689 C           11.3035    10.6093    -3.1278 C             1 RES     
    1690 O           10.9545    10.9545    -2.0000 O             1 RES     
    1691 O           11.3235     9.1904    -3.6139 O             1 RES     
    1692 CH2         11.4155    11.6716    -4.0054 CH2           1 RES     
    1693 CH2         11.8581    10.9064    -5.2665 CH2           1 RES     
    1694 CH2         12.2833    11.9103    -6.3542 CH2           1 RES     
    1695 CH2         12.7258    11.1451    -7.6152 CH2           1 RES     
    1696 CH2         13.1510    12.1489    -8.7030 CH2           1 RES     
    1697 CH2         13.5936    11.3837    -9.9640 CH2           1 RES     
    1698 CH2         14.0187    12.3876   -11.0517 CH2           1 RES     
    1699 CH2         14.4613    11.6224   -12.3127 CH2           1 RES     
    1700 CH2         14.8864    12.6262   -13.4005 CH2           1 RES     
    1701 CH2         15.3290    11.8610   -14.6615 CH2           1 RES     
    1702 CH2         15.7541    12.8649   -15.7492 CH2           1 RES     
    1703 CH2         16.1967    12.0997   -17.0102 CH2           1 RES     
    1704 CH2         16.6218    13.1035   -18.0980 CH2           1 RES     
    1705 CH2         17.0644    12.3383   -19.3590 CH2           1 RES     
    1706 CH2         17.4895    13.3422   -20.4467 CH2           1 RES     
    1707 C           17.9120    12.6117   -21.6504 C             1 RES     
    1708 C           16.0577     6.1244   -24.1162 C             1 RES     
    1709 CH2         11.2742     8.2915    -4.7507 CH2           1 RES     
    1710 CH2         11.9242     8.9698    -5.9709 CH2           1 RES     
    1711 CH2         11.8719     8.0152    -7.1782 CH2           1 RES     
    1712 CH2         12.5218     8.6935    -8.3985 CH2           1 RES     
    1713 CH2         12.4695     7.7389    -9.6058 CH2           1 RES     
    1714 CH2         13.1195     8.4172   -10.8260 CH2           1 RES     
    1715 CH2         13.0671     7.4626   -12.0333 CH2           1 RES     
    1716 CH2         13.7171     8.1409   -13.2536 CH2           1 RES     
    1717 CH2         13.6648     7.1863   -14.4609 CH2           1 RES     
    1718 CH2         14.3147     7.8646   -15.6811 CH2           1 RES     
    1719 CH2         14.2624     6.9100   -16.8884 CH2           1 RES     
    1720 CH2         14.9124     7.5883   -18.1087 CH2           1 RES     
    1721 CH2         14.8601     6.6336   -19.3159 CH2           1 RES     
    1722 CH2         15.5100     7.3120   -20.5362 CH2           1 RES     
    1723 CH2         15.4577     6.3573   -21.7435 CH2           1 RES     
    1724 CH2         16.1077     7.0356   -22.9638 CH2           1 RES     
    1725 C           16.7356    32.4779    -3.1278 C             1 RES     
    1726 O           16.4317    32.8634    -2.0000 O             1 RES     
    1727 O           16.5810    31.0673    -3.6139 O             1 RES     
    1728 CH2         16.9774    33.5184    -4.0054 CH2           1 RES     
    1729 CH2         17.3226    32.7046    -5.2665 CH2           1 RES     
    1730 CH2         17.8679    33.6486    -6.3542 CH2           1 RES     
    1731 CH2         18.2131    32.8348    -7.6152 CH2           1 RES     
    1732 CH2         18.7584    33.7787    -8.7030 CH2           1 RES     
    1733 CH2         19.1035    32.9649    -9.9640 CH2           1 RES     
    1734 CH2         19.6488    33.9089   -11.0517 CH2           1 RES     
    1735 CH2         19.9940    33.0951   -12.3127 CH2           1 RES     
    1736 CH2         20.5393    34.0391   -13.4005 CH2           1 RES     
    1737 CH2         20.8845    33.2253   -14.6615 CH2           1 RES     
    1738 CH2         21.4298    34.1692   -15.7492 CH2           1 RES     
    1739 CH2         21.7749    33.3554   -17.0102 CH2           1 RES     
    1740 CH2         22.3202    34.2994   -18.0980 CH2           1 RES     
    1741 CH2         22.6654    33.4856   -19.3590 CH2           1 RES     
    1742 CH2         23.2107    34.4296   -20.4467 CH2           1 RES     
    1743 C           23.5402    33.6527   -21.6504 C             1 RES     
    1744 C           20.9025    27.4426   -24.1162 C             1 RES     
    1745 CH2         16.4216    30.1813    -4.7507 CH2           1 RES     
    1746 CH2         17.1501    30.7746    -5.9709 CH2           1 RES     
    1747 CH2         16.9808    29.8336    -7.1782 CH2           1 RES     
    1748 CH2         17.7092    30.4269    -8.3985 CH2           1 RES     
    1749 CH2         17.5399    29.4859    -9.6058 CH2           1 RES     
    1750 CH2         18.2683    30.0792   -10.8260 CH2           1 RES     
    1751 CH2         18.0991    29.1382   -12.0333 CH2           1 RES     
    1752 CH2         18.8275    29.7315   -13.2536 CH2           1 RES     
    1753 CH2         18.6582    28.7906   -14.4609 CH2           1 RES     
    1754 CH2         19.3866    29.3838   -15.6811 CH2           1 RES     
    1755 CH2         19.2174    28.4429   -16.8884 CH2           1 RES     
    1756 CH2         19.9458    29.0361   -18.1087 CH2           1 RES     
    1757 CH2         19.7765    28.0952   -19.3159 CH2           1 RES     
    1758 CH2         20.5049    28.6884   -20.5362 CH2           1 RES     
    1759 CH2         20.3356    27.7475   -21.7435 CH2           1 RES     
    1760 CH2         21.0641    28.3408   -22.9638 CH2           1 RES     
    1761 C           22.1230    26.9444    -3.1278 C             1 RES     
    1762 O           21.9089    27.3861    -2.0000 O             1 RES     
    1763 O           21.6694    25.5998    -3.6139 O             1 RES     
    1764 CH2         22.5825    27.9088    -4.0054 CH2           1 RES     
    1765 CH2         22.7450    27.0399    -5.2665 CH2           1 RES     
    1766 CH2         23.4802    27.8449    -6.3542 CH2           1 RES     
    1767 CH2         23.6427    26.9760    -7.6152 CH2           1 RES     
    1768 CH2         24.3778    27.7810    -8.7030 CH2           1 RES     
    1769 CH2         24.5403    26.9121    -9.9640 CH2           1 RES     
    1770 CH2         25.2755    27.7171   -11.0517 CH2           1 RES     
    1771 CH2         25.4380    26.8482   -12.3127 CH2           1 RES     
    1772 CH2         26.1731    27.6532   -13.4005 CH2           1 RES     
    1773 CH2         26.3356    26.7842   -14.6615 CH2           1 RES     
    1774 CH2         27.0708    27.5892   -15.7492 CH2           1 RES     
    1775 CH2         27.2333    26.7203   -17.0102 CH2           1 RES     
    1776 CH2         27.9684    27.5253   -18.0980 CH2           1 RES     
    1777 CH2         28.1309    26.6564   -19.3590 CH2           1 RES     
    1778 CH2         28.8661    27.4614   -20.4467 CH2           1 RES     
    1779 C           29.0212    26.6320   -21.6504 C             1 RES     
    1780 C           25.1125    21.1323   -24.1162 C             1 RES     
    1781 CH2         21.3237    24.7687    -4.7507 CH2           1 RES     
    1782 CH2         22.1624    25.1919    -5.9709 CH2           1 RES     
    1783 CH2         21.7952    24.3091    -7.1782 CH2           1 RES     
    1784 CH2         22.6339    24.7323    -8.3985 CH2           1 RES     
    1785 CH2         22.2667    23.8496    -9.6058 CH2           1 RES     
    1786 CH2         23.1054    24.2728   -10.8260 CH2           1 RES     
    1787 CH2         22.7382    23.3900   -12.0333 CH2           1 RES     
    1788 CH2         23.5770    23.8132   -13.2536 CH2           1 RES     
    1789 CH2         23.2097    22.9305   -14.4609 CH2           1 RES     
    1790 CH2         24.0485    23.3536   -15.6811 CH2           1 RES     
    1791 CH2         23.6813    22.4709   -16.8884 CH2           1 RES     
    1792 CH2         24.5200    22.8941   -18.1087 CH2           1 RES     
    1793 CH2         24.1528    22.0113   -19.3159 CH2           1 RES     
    1794 CH2         24.9915    22.4345   -20.5362 CH2           1 RES     
    1795 CH2         24.6243    21.5518   -21.7435 CH2           1 RES     
    1796 CH2         25.4631    21.9750   -22.9638 CH2           1 RES     
    1797 C           27.5500    -0.4627    -3.1278 C             1 RES     
    1798 O           27.3861     0.0000    -2.0000 O             1 RES     
    1799 O           26.9501    -1.7487    -3.6139 O             1 RES     
    1800 CH2         28.1135     0.4448    -4.0054 CH2           1 RES     
    1801 CH2         28.1787    -0.4367    -5.2665 CH2           1 RES     
    1802 CH2         28.9986     0.2818    -6.3542 CH2           1 RES     
    1803 CH2         29.0638    -0.5998    -7.6152 CH2           1 RES     
    1804 CH2         29.8836     0.1188    -8.7030 CH2           1 RES     
    1805 CH2         29.9488    -0.7628    -9.9640 CH2           1 RES     
    1806 CH2         30.7686    -0.0442   -11.0517 CH2           1 RES     
    1807 CH2         30.8338    -0.9258   -12.3127 CH2           1 RES     
    1808 CH2         31.6537    -0.2073   -13.4005 CH2           1 RES     
    1809 CH2         31.7189    -1.0888   -14.6615 CH2           1 RES     
    1810 CH2         32.5387    -0.3703   -15.7492 CH2           1 RES     
    1811 CH2         32.6039    -1.2519   -17.0102 CH2           1 RES     
    1812 CH2         33.4237    -0.5333   -18.0980 CH2           1 RES     
    1813 CH2         33.4889    -1.4149   -19.3590 CH2           1 RES     
    1814 CH2         34.3088    -0.6963   -20.4467 CH2           1 RES     
    1815 C           34.3710    -1.5378   -21.6504 C             1 RES     
    1816 C           29.8768    -6.5703   -24.1162 C             1 RES     
    1817 CH2         26.5144    -2.5364    -4.7507 CH2           1 RES     
    1818 CH2         27.3949    -2.2088    -5.9709 CH2           1 RES     
    1819 CH2         26.9321    -3.0454    -7.1782 CH2           1 RES     
    1820 CH2         27.8125    -2.7178    -8.3985 CH2           1 RES     
    1821 CH2         27.3497    -3.5544    -9.6058 CH2           1 RES     
    1822 CH2         28.2302    -3.2268   -10.8260 CH2           1 RES     
    1823 CH2         27.7674    -4.0634   -12.0333 CH2           1 RES     
    1824 CH2         28.6479    -3.7358   -13.2536 CH2           1 RES     
    1825 CH2         28.1851    -4.5724   -14.4609 CH2           1 RES     
    1826 CH2         29.0656    -4.2448   -15.6811 CH2           1 RES     
    1827 CH2         28.6028    -5.0814   -16.8884 CH2           1 RES     
    1828 CH2         29.4832    -4.7538   -18.1087 CH2           1 RES     
    1829 CH2         29.0204    -5.5904   -19.3159 CH2           1 RES     
    1830 CH2         29.9009    -5.2628   -20.5362 CH2           1 RES     
    1831 CH2         29.4381    -6.0994   -21.7435 CH2           1 RES     
    1832 CH2         30.3186    -5.7718   -22.9638 CH2           1 RES     
    1833 C           33.1697    21.5254    -3.1278 C             1 RES     
    1834 O           32.8634    21.9089    -2.0000 O             1 RES     
    1835 O           33.0242    20.1138    -3.6139 O             1 RES     
    1836 CH2         33.4049    22.5675    -4.0054 CH2           1 RES     
    1837 CH2         33.7553    21.7559    -5.2665 CH2           1 RES     
    1838 CH2         34.2945    22.7033    -6.3542 CH2           1 RES     
    1839 CH2         34.6449    21.8918    -7.6152 CH2           1 RES     
    1840 CH2         35.1841    22.8392    -8.7030 CH2           1 RES     
    1841 CH2         35.5345    22.0277    -9.9640 CH2           1 RES     
    1842 CH2         36.0737    22.9751   -11.0517 CH2           1 RES     
    1843 CH2         36.4241    22.1635   -12.3127 CH2           1 RES     
    1844 CH2         36.9633    23.1110   -13.4005 CH2           1 RES     
    1845 CH2         37.3137    22.2994   -14.6615 CH2           1 RES     
    1846 CH2         37.8529    23.2469   -15.7492 CH2           1 RES     
    1847 CH2         38.2033    22.4353   -17.0102 CH2           1 RES     
    1848 CH2         38.7425    23.3828   -18.0980 CH2           1 RES     
    1849 CH2         39.0929    22.5712   -19.3590 CH2           1 RES     
    1850 CH2         39.6321    23.5186   -20.4467 CH2           1 RES     
    1851 C           39.9666    22.7440   -21.6504 C             1 RES     
    1852 C           37.3689    16.5170   -24.1162 C             1 RES     
    1853 CH2         32.8706    19.2269    -4.7507 CH2           1 RES     
    1854 CH2         33.5952    19.8248    -5.9709 CH2           1 RES     
    1855 CH2         33.4319    18.8828    -7.1782 CH2           1 RES     
    1856 CH2         34.1565    19.4807    -8.3985 CH2           1 RES     
    1857 CH2         33.9933    18.5387    -9.6058 CH2           1 RES     
    1858 CH2         34.7179    19.1366   -10.8260 CH2           1 RES     
    1859 CH2         34.5547    18.1946   -12.0333 CH2           1 RES     
    1860 CH2         35.2792    18.7925   -13.2536 CH2           1 RES     
    1861 CH2         35.1160    17.8505   -14.4609 CH2           1 RES     
    1862 CH2         35.8406    18.4484   -15.6811 CH2           1 RES     
    1863 CH2         35.6774    17.5064   -16.8884 CH2           1 RES     
    1864 CH2         36.4020    18.1043   -18.1087 CH2           1 RES     
    1865 CH2         36.2387    17.1623   -19.3159 CH2           1 RES     
    1866 CH2         36.9633    17.7603   -20.5362 CH2           1 RES     
    1867 CH2         36.8001    16.8182   -21.7435 CH2           1 RES     
    1868 CH2         37.5247    17.4162   -22.9638 CH2           1 RES     
    1869 C           33.0855    10.5167    -3.1278 C             1 RES     
    1870 O           32.8634    10.9545    -2.0000 O             1 RES     
    1871 O           32.6564     9.1641    -3.6139 O             1 RES     
    1872 CH2         33.5273    11.4893    -4.0054 CH2           1 RES     
    1873 CH2         33.7056    10.6235    -5.2665 CH2           1 RES     
    1874 CH2         34.4260    11.4417    -6.3542 CH2           1 RES     
    1875 CH2         34.6043    10.5759    -7.6152 CH2           1 RES     
    1876 CH2         35.3247    11.3941    -8.7030 CH2           1 RES     
    1877 CH2         35.5030    10.5283    -9.9640 CH2           1 RES     
    1878 CH2         36.2233    11.3466   -11.0517 CH2           1 RES     
    1879 CH2         36.4016    10.4807   -12.3127 CH2           1 RES     
    1880 CH2         37.1220    11.2990   -13.4005 CH2           1 RES     
    1881 CH2         37.3003    10.4332   -14.6615 CH2           1 RES     
    1882 CH2         38.0207    11.2514   -15.7492 CH2           1 RES     
    1883 CH2         38.1990    10.3856   -17.0102 CH2           1 RES     
    1884 CH2         38.9193    11.2038   -18.0980 CH2           1 RES     
    1885 CH2         39.0976    10.3380   -19.3590 CH2           1 RES     
    1886 CH2         39.8180    11.1562   -20.4467 CH2           1 RES     
    1887 C           39.9882    10.3297   -21.6504 C             1 RES     
    1888 C           36.1802     4.7600   -24.1162 C             1 RES     
    1889 CH2         32.3258     8.3268    -4.7507 CH2           1 RES     
    1890 CH2         33.1567     8.7652    -5.9709 CH2           1 RES     
    1891 CH2         32.8056     7.8759    -7.1782 CH2           1 RES     
    1892 CH2         33.6365     8.3143    -8.3985 CH2           1 RES     
    1893 CH2         33.2854     7.4250    -9.6058 CH2           1 RES     
    1894 CH2         34.1163     7.8633   -10.8260 CH2           1 RES     
    1895 CH2         33.7652     6.9741   -12.0333 CH2           1 RES     
    1896 CH2         34.5961     7.4124   -13.2536 CH2           1 RES     
    1897 CH2         34.2450     6.5232   -14.4609 CH2           1 RES     
    1898 CH2         35.0759     6.9615   -15.6811 CH2           1 RES     
    1899 CH2         34.7248     6.0723   -16.8884 CH2           1 RES     
    1900 CH2         35.5557     6.5106   -18.1087 CH2           1 RES     
    1901 CH2         35.2046     5.6214   -19.3159 CH2           1 RES     
    1902 CH2         36.0355     6.0597   -20.5362 CH2           1 RES     
    1903 CH2         35.6844     5.1704   -21.7435 CH2           1 RES     
    1904 CH2         36.5153     5.6088   -22.9638 CH2           1 RES     
    1905 C           16.7497     5.1033    -3.1278 C             1 RES     
    1906 O           16.4317     5.4772    -2.0000 O             1 RES     
    1907 O           16.6475     3.6879    -3.6139 O             1 RES     
    1908 CH2         16.9528     6.1521    -4.0054 CH2           1 RES     
    1909 CH2         17.3279     5.3516    -5.2665 CH2           1 RES     
    1910 CH2         17.8378     6.3151    -6.3542 CH2           1 RES     
    1911 CH2         18.2129     5.5147    -7.6152 CH2           1 RES     
    1912 CH2         18.7229     6.4782    -8.7030 CH2           1 RES     
    1913 CH2         19.0979     5.6777    -9.9640 CH2           1 RES     
    1914 CH2         19.6079     6.6412   -11.0517 CH2           1 RES     
    1915 CH2         19.9830     5.8408   -12.3127 CH2           1 RES     
    1916 CH2         20.4929     6.8043   -13.4005 CH2           1 RES     
    1917 CH2         20.8680     6.0038   -14.6615 CH2           1 RES     
    1918 CH2         21.3780     6.9674   -15.7492 CH2           1 RES     
    1919 CH2         21.7530     6.1669   -17.0102 CH2           1 RES     
    1920 CH2         22.2630     7.1304   -18.0980 CH2           1 RES     
    1921 CH2         22.6381     6.3299   -19.3590 CH2           1 RES     
    1922 CH2         23.1480     7.2935   -20.4467 CH2           1 RES     
    1923 C           23.5060     6.5294   -21.6504 C             1 RES     
    1924 C           21.1002     0.2258   -24.1162 C             1 RES     
    1925 CH2         16.5210     2.7967    -4.7507 CH2           1 RES     
    1926 CH2         17.2269     3.4165    -5.9709 CH2           1 RES     
    1927 CH2         17.0926     2.4699    -7.1782 CH2           1 RES     
    1928 CH2         17.7986     3.0898    -8.3985 CH2           1 RES     
    1929 CH2         17.6643     2.1432    -9.6058 CH2           1 RES     
    1930 CH2         18.3702     2.7630   -10.8260 CH2           1 RES     
    1931 CH2         18.2359     1.8164   -12.0333 CH2           1 RES     
    1932 CH2         18.9419     2.4363   -13.2536 CH2           1 RES     
    1933 CH2         18.8076     1.4897   -14.4609 CH2           1 RES     
    1934 CH2         19.5135     2.1095   -15.6811 CH2           1 RES     
    1935 CH2         19.3792     1.1630   -16.8884 CH2           1 RES     
    1936 CH2         20.0851     1.7828   -18.1087 CH2           1 RES     
    1937 CH2         19.9508     0.8362   -19.3159 CH2           1 RES     
    1938 CH2         20.6568     1.4561   -20.5362 CH2           1 RES     
    1939 CH2         20.5225     0.5095   -21.7435 CH2           1 RES     
    1940 CH2         21.2284     1.1293   -22.9638 CH2           1 RES     
    1941 C           11.1887    -0.4313    -3.1278 C             1 RES     
    1942 O           10.9545     0.0000    -2.0000 O             1 RES     
    1943 O           10.7976    -1.7954    -3.6139 O             1 RES     
    1944 CH2         11.6032     0.5532    -4.0054 CH2           1 RES     
    1945 CH2         11.8057    -0.3073    -5.2665 CH2           1 RES     
    1946 CH2         12.5029     0.5308    -6.3542 CH2           1 RES     
    1947 CH2         12.7053    -0.3297    -7.6152 CH2           1 RES     
    1948 CH2         13.4025     0.5083    -8.7030 CH2           1 RES     
    1949 CH2         13.6049    -0.3521    -9.9640 CH2           1 RES     
    1950 CH2         14.3022     0.4859   -11.0517 CH2           1 RES     
    1951 CH2         14.5046    -0.3746   -12.3127 CH2           1 RES     
    1952 CH2         15.2018     0.4635   -13.4005 CH2           1 RES     
    1953 CH2         15.4042    -0.3970   -14.6615 CH2           1 RES     
    1954 CH2         16.1015     0.4410   -15.7492 CH2           1 RES     
    1955 CH2         16.3039    -0.4195   -17.0102 CH2           1 RES     
    1956 CH2         17.0011     0.4186   -18.0980 CH2           1 RES     
    1957 CH2         17.2035    -0.4419   -19.3590 CH2           1 RES     
    1958 CH2         17.9007     0.3961   -20.4467 CH2           1 RES     
    1959 C           18.0940    -0.4252   -21.6504 C             1 RES     
    1960 C           14.4432    -6.0993   -24.1162 C             1 RES     
    1961 CH2         10.4906    -2.6416    -4.7507 CH2           1 RES     
    1962 CH2         11.3089    -2.1802    -5.9709 CH2           1 RES     
    1963 CH2         10.9828    -3.0790    -7.1782 CH2           1 RES     
    1964 CH2         11.8011    -2.6175    -8.3985 CH2           1 RES     
    1965 CH2         11.4750    -3.5163    -9.6058 CH2           1 RES     
    1966 CH2         12.2934    -3.0549   -10.8260 CH2           1 RES     
    1967 CH2         11.9672    -3.9536   -12.0333 CH2           1 RES     
    1968 CH2         12.7856    -3.4922   -13.2536 CH2           1 RES     
    1969 CH2         12.4595    -4.3909   -14.4609 CH2           1 RES     
    1970 CH2         13.2778    -3.9295   -15.6811 CH2           1 RES     
    1971 CH2         12.9517    -4.8282   -16.8884 CH2           1 RES     
    1972 CH2         13.7700    -4.3668   -18.1087 CH2           1 RES     
    1973 CH2         13.4439    -5.2655   -19.3159 CH2           1 RES     
    1974 CH2         14.2622    -4.8041   -20.5362 CH2           1 RES     
    1975 CH2         13.9361    -5.7029   -21.7435 CH2           1 RES     
    1976 CH2         14.7545    -5.2415   -22.9638 CH2           1 RES     
    1977 C            0.2739    10.5471    -3.1278 C             1 RES     
    1978 O            0.0000    10.9545    -2.0000 O             1 RES     
    1979 O            0.0129     9.1522    -3.6139 O             1 RES     
    1980 CH2          0.5938    11.5663    -4.0054 CH2           1 RES     
    1981 CH2          0.8764    10.7287    -5.2665 CH2           1 RES     
    1982 CH2          1.4916    11.6287    -6.3542 CH2           1 RES     
    1983 CH2          1.7741    10.7911    -7.6152 CH2           1 RES     
    1984 CH2          2.3893    11.6911    -8.7030 CH2           1 RES     
    1985 CH2          2.6719    10.8535    -9.9640 CH2           1 RES     
    1986 CH2          3.2871    11.7534   -11.0517 CH2           1 RES     
    1987 CH2          3.5696    10.9158   -12.3127 CH2           1 RES     
    1988 CH2          4.1848    11.8158   -13.4005 CH2           1 RES     
    1989 CH2          4.4674    10.9782   -14.6615 CH2           1 RES     
    1990 CH2          5.0826    11.8782   -15.7492 CH2           1 RES     
    1991 CH2          5.3652    11.0406   -17.0102 CH2           1 RES     
    1992 CH2          5.9804    11.9406   -18.0980 CH2           1 RES     
    1993 CH2          6.2629    11.1029   -19.3590 CH2           1 RES     
    1994 CH2          6.8781    12.0029   -20.4467 CH2           1 RES     
    1995 C            7.1478    11.2034   -21.6504 C             1 RES     
    1996 C            4.0476     5.2107   -24.1162 C             1 RES     
    1997 CH2         -0.2131     8.2809    -4.7507 CH2           1 RES     
    1998 CH2          0.5582     8.8173    -5.9709 CH2           1 RES     
    1999 CH2          0.3182     7.8918    -7.1782 CH2           1 RES     
    2000 CH2          1.0894     8.4283    -8.3985 CH2           1 RES     
    2001 CH2          0.8494     7.5028    -9.6058 CH2           1 RES     
    2002 CH2          1.6206     8.0392   -10.8260 CH2           1 RES     
    2003 CH2          1.3806     7.1138   -12.0333 CH2           1 RES     
    2004 CH2          2.1518     7.6502   -13.2536 CH2           1 RES     
    2005 CH2          1.9118     6.7248   -14.4609 CH2           1 RES     
    2006 CH2          2.6830     7.2612   -15.6811 CH2           1 RES     
    2007 CH2          2.4430     6.3357   -16.8884 CH2           1 RES     
    2008 CH2          3.2142     6.8722   -18.1087 CH2           1 RES     
    2009 CH2          2.9742     5.9467   -19.3159 CH2           1 RES     
    2010 CH2          3.7455     6.4831   -20.5362 CH2           1 RES     
    2011 CH2          3.5054     5.5577   -21.7435 CH2           1 RES     
    2012 CH2          4.2767     6.0941   -22.9638 CH2           1 RES     
    2013 C           16.6331    -0.4476    -3.1278 C             1 RES     
    2014 O           16.4317     0.0000    -2.0000 O             1 RES     
    2015 O           16.1413    -1.7787    -3.6139 O             1 RES     
    2016 CH2         17.1199     0.5033    -4.0054 CH2           1 RES     
    2017 CH2         17.2576    -0.3699    -5.2665 CH2           1 RES     
    2018 CH2         18.0154     0.4137    -6.3542 CH2           1 RES     
    2019 CH2         18.1530    -0.4595    -7.6152 CH2           1 RES     
    2020 CH2         18.9109     0.3242    -8.7030 CH2           1 RES     
    2021 CH2         19.0485    -0.5490    -9.9640 CH2           1 RES     
    2022 CH2         19.8063     0.2347   -11.0517 CH2           1 RES     
    2023 CH2         19.9440    -0.6385   -12.3127 CH2           1 RES     
    2024 CH2         20.7018     0.1451   -13.4005 CH2           1 RES     
    2025 CH2         20.8394    -0.7281   -14.6615 CH2           1 RES     
    2026 CH2         21.5972     0.0556   -15.7492 CH2           1 RES     
    2027 CH2         21.7349    -0.8176   -17.0102 CH2           1 RES     
    2028 CH2         22.4927    -0.0339   -18.0980 CH2           1 RES     
    2029 CH2         22.6303    -0.9071   -19.3590 CH2           1 RES     
    2030 CH2         23.3882    -0.1235   -20.4467 CH2           1 RES     
    2031 C           23.5195    -0.9570   -21.6504 C             1 RES     
    2032 C           19.4554    -6.3427   -24.1162 C             1 RES     
    2033 CH2         15.7719    -2.5996    -4.7507 CH2           1 RES     
    2034 CH2         16.6224    -2.2006    -5.9709 CH2           1 RES     
    2035 CH2         16.2301    -3.0725    -7.1782 CH2           1 RES     
    2036 CH2         17.0806    -2.6734    -8.3985 CH2           1 RES     
    2037 CH2         16.6883    -3.5453    -9.6058 CH2           1 RES     
    2038 CH2         17.5388    -3.1463   -10.8260 CH2           1 RES     
    2039 CH2         17.1465    -4.0182   -12.0333 CH2           1 RES     
    2040 CH2         17.9970    -3.6191   -13.2536 CH2           1 RES     
    2041 CH2         17.6047    -4.4910   -14.4609 CH2           1 RES     
    2042 CH2         18.4552    -4.0920   -15.6811 CH2           1 RES     
    2043 CH2         18.0629    -4.9638   -16.8884 CH2           1 RES     
    2044 CH2         18.9134    -4.5648   -18.1087 CH2           1 RES     
    2045 CH2         18.5211    -5.4367   -19.3159 CH2           1 RES     
    2046 CH2         19.3716    -5.0376   -20.5362 CH2           1 RES     
    2047 CH2         18.9793    -5.9095   -21.7435 CH2           1 RES     
    2048 CH2         19.8298    -5.5105   -22.9638 CH2           1 RES     
    2049 C           16.7478    10.5790    -3.1278 C             1 RES     
    2050 O           16.4317    10.9545    -2.0000 O             1 RES     
    2051 O           16.6387     9.1641    -3.6139 O             1 RES     
    2052 CH2         16.9561    11.6267    -4.0054 CH2           1 RES     
    2053 CH2         17.3272    10.8244    -5.2665 CH2           1 RES     
    2054 CH2         17.8419    11.7854    -6.3542 CH2           1 RES     
    2055 CH2         18.2131    10.9831    -7.6152 CH2           1 RES     
    2056 CH2         18.7277    11.9441    -8.7030 CH2           1 RES     
    2057 CH2         19.0989    11.1418    -9.9640 CH2           1 RES     
    2058 CH2         19.6136    12.1029   -11.0517 CH2           1 RES     
    2059 CH2         19.9847    11.3006   -12.3127 CH2           1 RES     
    2060 CH2         20.4994    12.2616   -13.4005 CH2           1 RES     
    2061 CH2         20.8705    11.4593   -14.6615 CH2           1 RES     
    2062 CH2         21.3852    12.4203   -15.7492 CH2           1 RES     
    2063 CH2         21.7563    11.6180   -17.0102 CH2           1 RES     
    2064 CH2         22.2710    12.5790   -18.0980 CH2           1 RES     
    2065 CH2         22.6422    11.7767   -19.3590 CH2           1 RES     
    2066 CH2         23.1568    12.7377   -20.4467 CH2           1 RES     
    2067 C           23.5111    11.9719   -21.6504 C             1 RES     
    2068 C           21.0744     5.6801   -24.1162 C             1 RES     
    2069 CH2         16.5078     8.2735    -4.7507 CH2           1 RES     
    2070 CH2         17.2168     8.8899    -5.9709 CH2           1 RES     
    2071 CH2         17.0779     7.9439    -7.1782 CH2           1 RES     
    2072 CH2         17.7868     8.5603    -8.3985 CH2           1 RES     
    2073 CH2         17.6479     7.6144    -9.6058 CH2           1 RES     
    2074 CH2         18.3569     8.2308   -10.8260 CH2           1 RES     
    2075 CH2         18.2179     7.2849   -12.0333 CH2           1 RES     
    2076 CH2         18.9269     7.9012   -13.2536 CH2           1 RES     
    2077 CH2         18.7879     6.9553   -14.4609 CH2           1 RES     
    2078 CH2         19.4969     7.5717   -15.6811 CH2           1 RES     
    2079 CH2         19.3580     6.6258   -16.8884 CH2           1 RES     
    2080 CH2         20.0670     7.2421   -18.1087 CH2           1 RES     
    2081 CH2         19.9280     6.2962   -19.3159 CH2           1 RES     
    2082 CH2         20.6370     6.9126   -20.5362 CH2           1 RES     
    2083 CH2         20.4980     5.9667   -21.7435 CH2           1 RES     
    2084 CH2         21.2070     6.5831   -22.9638 CH2           1 RES     
    2085 C           38.6455     5.0925    -3.1278 C             1 RES     
    2086 O           38.3406     5.4772    -2.0000 O             1 RES     
    2087 O           38.4946     3.6816    -3.6139 O             1 RES     
    2088 CH2         38.8846     6.1337    -4.0054 CH2           1 RES     
    2089 CH2         39.2319     5.3208    -5.2665 CH2           1 RES     
    2090 CH2         39.7748     6.2662    -6.3542 CH2           1 RES     
    2091 CH2         40.1220     5.4533    -7.6152 CH2           1 RES     
    2092 CH2         40.6649     6.3986    -8.7030 CH2           1 RES     
    2093 CH2         41.0122     5.5857    -9.9640 CH2           1 RES     
    2094 CH2         41.5550     6.5311   -11.0517 CH2           1 RES     
    2095 CH2         41.9023     5.7182   -12.3127 CH2           1 RES     
    2096 CH2         42.4451     6.6636   -13.4005 CH2           1 RES     
    2097 CH2         42.7924     5.8507   -14.6615 CH2           1 RES     
    2098 CH2         43.3353     6.7960   -15.7492 CH2           1 RES     
    2099 CH2         43.6825     5.9831   -17.0102 CH2           1 RES     
    2100 CH2         44.2254     6.9285   -18.0980 CH2           1 RES     
    2101 CH2         44.5727     6.1156   -19.3590 CH2           1 RES     
    2102 CH2         45.1155     7.0610   -20.4467 CH2           1 RES     
    2103 C           45.4470     6.2850   -21.6504 C             1 RES     
    2104 C           42.8254     0.0680   -24.1162 C             1 RES     
    2105 CH2         38.3375     2.7952    -4.7507 CH2           1 RES     
    2106 CH2         39.0644     3.3903    -5.9709 CH2           1 RES     
    2107 CH2         38.8975     2.4489    -7.1782 CH2           1 RES     
    2108 CH2         39.6244     3.0441    -8.3985 CH2           1 RES     
    2109 CH2         39.4576     2.1027    -9.6058 CH2           1 RES     
    2110 CH2         40.1845     2.6978   -10.8260 CH2           1 RES     
    2111 CH2         40.0176     1.7564   -12.0333 CH2           1 RES     
    2112 CH2         40.7445     2.3516   -13.2536 CH2           1 RES     
    2113 CH2         40.5776     1.4102   -14.4609 CH2           1 RES     
    2114 CH2         41.3045     2.0054   -15.6811 CH2           1 RES     
    2115 CH2         41.1377     1.0640   -16.8884 CH2           1 RES     
    2116 CH2         41.8646     1.6591   -18.1087 CH2           1 RES     
    2117 CH2         41.6977     0.7177   -19.3159 CH2           1 RES     
    2118 CH2         42.4246     1.3129   -20.5362 CH2           1 RES     
    2119 CH2         42.2578     0.3715   -21.7435 CH2           1 RES     
    2120 CH2         42.9846     0.9666   -22.9638 CH2           1 RES     
    2121 C            5.6888    37.8976    -3.1278 C             1 RES     
    2122 O            5.4772    38.3406    -2.0000 O             1 RES     
    2123 O            5.2273    36.5557    -3.6139 O             1 RES     
    2124 CH2          6.1539    38.8593    -4.0054 CH2           1 RES     
    2125 CH2          6.3113    37.9895    -5.2665 CH2           1 RES     
    2126 CH2          7.0511    38.7902    -6.3542 CH2           1 RES     
    2127 CH2          7.2086    37.9203    -7.6152 CH2           1 RES     
    2128 CH2          7.9484    38.7210    -8.7030 CH2           1 RES     
    2129 CH2          8.1058    37.8511    -9.9640 CH2           1 RES     
    2130 CH2          8.8457    38.6518   -11.0517 CH2           1 RES     
    2131 CH2          9.0031    37.7820   -12.3127 CH2           1 RES     
    2132 CH2          9.7429    38.5827   -13.4005 CH2           1 RES     
    2133 CH2          9.9004    37.7128   -14.6615 CH2           1 RES     
    2134 CH2         10.6402    38.5135   -15.7492 CH2           1 RES     
    2135 CH2         10.7976    37.6436   -17.0102 CH2           1 RES     
    2136 CH2         11.5375    38.4443   -18.0980 CH2           1 RES     
    2137 CH2         11.6949    37.5745   -19.3590 CH2           1 RES     
    2138 CH2         12.4347    38.3751   -20.4467 CH2           1 RES     
    2139 C           12.5850    37.5448   -21.6504 C             1 RES     
    2140 C            8.6442    32.0682   -24.1162 C             1 RES     
    2141 CH2          4.8767    35.7266    -4.7507 CH2           1 RES     
    2142 CH2          5.7179    36.1449    -5.9709 CH2           1 RES     
    2143 CH2          5.3455    35.2643    -7.1782 CH2           1 RES     
    2144 CH2          6.1867    35.6826    -8.3985 CH2           1 RES     
    2145 CH2          5.8143    34.8020    -9.6058 CH2           1 RES     
    2146 CH2          6.6555    35.2203   -10.8260 CH2           1 RES     
    2147 CH2          6.2832    34.3397   -12.0333 CH2           1 RES     
    2148 CH2          7.1244    34.7579   -13.2536 CH2           1 RES     
    2149 CH2          6.7520    33.8774   -14.4609 CH2           1 RES     
    2150 CH2          7.5932    34.2956   -15.6811 CH2           1 RES     
    2151 CH2          7.2208    33.4151   -16.8884 CH2           1 RES     
    2152 CH2          8.0620    33.8333   -18.1087 CH2           1 RES     
    2153 CH2          7.6896    32.9528   -19.3159 CH2           1 RES     
    2154 CH2          8.5308    33.3710   -20.5362 CH2           1 RES     
    2155 CH2          8.1585    32.4904   -21.7435 CH2           1 RES     
    2156 CH2          8.9997    32.9087   -22.9638 CH2           1 RES     
    2157 C           11.1410    21.4549    -3.1278 C             1 RES     
    2158 O           10.9545    21.9089    -2.0000 O             1 RES     
    2159 O           10.6057    20.1407    -3.6139 O             1 RES     
    2160 CH2         11.6589    22.3892    -4.0054 CH2           1 RES     
    2161 CH2         11.7677    21.5120    -5.2665 CH2           1 RES     
    2162 CH2         12.5509    22.2703    -6.3542 CH2           1 RES     
    2163 CH2         12.6598    21.3930    -7.6152 CH2           1 RES     
    2164 CH2         13.4430    22.1513    -8.7030 CH2           1 RES     
    2165 CH2         13.5518    21.2741    -9.9640 CH2           1 RES     
    2166 CH2         14.3350    22.0324   -11.0517 CH2           1 RES     
    2167 CH2         14.4438    21.1551   -12.3127 CH2           1 RES     
    2168 CH2         15.2270    21.9134   -13.4005 CH2           1 RES     
    2169 CH2         15.3358    21.0362   -14.6615 CH2           1 RES     
    2170 CH2         16.1190    21.7945   -15.7492 CH2           1 RES     
    2171 CH2         16.2279    20.9172   -17.0102 CH2           1 RES     
    2172 CH2         17.0111    21.6755   -18.0980 CH2           1 RES     
    2173 CH2         17.1199    20.7983   -19.3590 CH2           1 RES     
    2174 CH2         17.9031    21.5566   -20.4467 CH2           1 RES     
    2175 C           18.0070    20.7192   -21.6504 C             1 RES     
    2176 C           13.7678    15.4701   -24.1162 C             1 RES     
    2177 CH2         10.2095    19.3324    -4.7507 CH2           1 RES     
    2178 CH2         11.0727    19.7032    -5.9709 CH2           1 RES     
    2179 CH2         10.6519    18.8447    -7.1782 CH2           1 RES     
    2180 CH2         11.5151    19.2156    -8.3985 CH2           1 RES     
    2181 CH2         11.0943    18.3571    -9.6058 CH2           1 RES     
    2182 CH2         11.9574    18.7279   -10.8260 CH2           1 RES     
    2183 CH2         11.5367    17.8694   -12.0333 CH2           1 RES     
    2184 CH2         12.3998    18.2402   -13.2536 CH2           1 RES     
    2185 CH2         11.9791    17.3817   -14.4609 CH2           1 RES     
    2186 CH2         12.8422    17.7526   -15.6811 CH2           1 RES     
    2187 CH2         12.4215    16.8941   -16.8884 CH2           1 RES     
    2188 CH2         13.2846    17.2649   -18.1087 CH2           1 RES     
    2189 CH2         12.8639    16.4064   -19.3159 CH2           1 RES     
    2190 CH2         13.7270    16.7772   -20.5362 CH2           1 RES     
    2191 CH2         13.3063    15.9187   -21.7435 CH2           1 RES     
    2192 CH2         14.1694    16.2896   -22.9638 CH2           1 RES     
    2193 C           33.1403    26.9808    -3.1278 C             1 RES     
    2194 O           32.8634    27.3861    -2.0000 O             1 RES     
    2195 O           32.8899    25.5841    -3.6139 O             1 RES     
    2196 CH2         33.4525    28.0024    -4.0054 CH2           1 RES     
    2197 CH2         33.7414    27.1670    -5.2665 CH2           1 RES     
    2198 CH2         34.3498    28.0716    -6.3542 CH2           1 RES     
    2199 CH2         34.6386    27.2361    -7.6152 CH2           1 RES     
    2200 CH2         35.2471    28.1407    -8.7030 CH2           1 RES     
    2201 CH2         35.5359    27.3053    -9.9640 CH2           1 RES     
    2202 CH2         36.1443    28.2098   -11.0517 CH2           1 RES     
    2203 CH2         36.4332    27.3744   -12.3127 CH2           1 RES     
    2204 CH2         37.0416    28.2790   -13.4005 CH2           1 RES     
    2205 CH2         37.3304    27.4435   -14.6615 CH2           1 RES     
    2206 CH2         37.9389    28.3481   -15.7492 CH2           1 RES     
    2207 CH2         38.2277    27.5127   -17.0102 CH2           1 RES     
    2208 CH2         38.8361    28.4172   -18.0980 CH2           1 RES     
    2209 CH2         39.1250    27.5818   -19.3590 CH2           1 RES     
    2210 CH2         39.7334    28.4864   -20.4467 CH2           1 RES     
    2211 C           40.0091    27.6889   -21.6504 C             1 RES     
    2212 C           36.9540    21.6731   -24.1162 C             1 RES     
    2213 CH2         32.6704    24.7110    -4.7507 CH2           1 RES     
    2214 CH2         33.4376    25.2532    -5.9709 CH2           1 RES     
    2215 CH2         33.2046    24.3260    -7.1782 CH2           1 RES     
    2216 CH2         33.9717    24.8682    -8.3985 CH2           1 RES     
    2217 CH2         33.7387    23.9410    -9.6058 CH2           1 RES     
    2218 CH2         34.5059    24.4832   -10.8260 CH2           1 RES     
    2219 CH2         34.2728    23.5560   -12.0333 CH2           1 RES     
    2220 CH2         35.0400    24.0982   -13.2536 CH2           1 RES     
    2221 CH2         34.8069    23.1710   -14.4609 CH2           1 RES     
    2222 CH2         35.5741    23.7132   -15.6811 CH2           1 RES     
    2223 CH2         35.3411    22.7860   -16.8884 CH2           1 RES     
    2224 CH2         36.1083    23.3282   -18.1087 CH2           1 RES     
    2225 CH2         35.8752    22.4009   -19.3159 CH2           1 RES     
    2226 CH2         36.6424    22.9432   -20.5362 CH2           1 RES     
    2227 CH2         36.4093    22.0159   -21.7435 CH2           1 RES     
    2228 CH2         37.1765    22.5581   -22.9638 CH2           1 RES     
    2229 C           33.1444    16.0292    -3.1278 C             1 RES     
    2230 O           32.8634    16.4317    -2.0000 O             1 RES     
    2231 O           32.9082    14.6300    -3.6139 O             1 RES     
    2232 CH2         33.4462    17.0540    -4.0054 CH2           1 RES     
    2233 CH2         33.7436    16.2215    -5.2665 CH2           1 RES     
    2234 CH2         34.3427    17.1322    -6.3542 CH2           1 RES     
    2235 CH2         34.6401    16.2998    -7.6152 CH2           1 RES     
    2236 CH2         35.2392    17.2105    -8.7030 CH2           1 RES     
    2237 CH2         35.5366    16.3780    -9.9640 CH2           1 RES     
    2238 CH2         36.1358    17.2888   -11.0517 CH2           1 RES     
    2239 CH2         36.4331    16.4563   -12.3127 CH2           1 RES     
    2240 CH2         37.0323    17.3670   -13.4005 CH2           1 RES     
    2241 CH2         37.3296    16.5345   -14.6615 CH2           1 RES     
    2242 CH2         37.9288    17.4453   -15.7492 CH2           1 RES     
    2243 CH2         38.2261    16.6128   -17.0102 CH2           1 RES     
    2244 CH2         38.8253    17.5235   -18.0980 CH2           1 RES     
    2245 CH2         39.1227    16.6911   -19.3590 CH2           1 RES     
    2246 CH2         39.7218    17.6018   -20.4467 CH2           1 RES     
    2247 C           40.0057    16.8072   -21.6504 C             1 RES     
    2248 C           37.0120    10.7606   -24.1162 C             1 RES     
    2249 CH2         32.6977    13.7547    -4.7507 CH2           1 RES     
    2250 CH2         33.4593    14.3047    -5.9709 CH2           1 RES     
    2251 CH2         33.2357    13.3752    -7.1782 CH2           1 RES     
    2252 CH2         33.9973    13.9252    -8.3985 CH2           1 RES     
    2253 CH2         33.7737    12.9956    -9.6058 CH2           1 RES     
    2254 CH2         34.5353    13.5456   -10.8260 CH2           1 RES     
    2255 CH2         34.3117    12.6161   -12.0333 CH2           1 RES     
    2256 CH2         35.0734    13.1661   -13.2536 CH2           1 RES     
    2257 CH2         34.8498    12.2365   -14.4609 CH2           1 RES     
    2258 CH2         35.6114    12.7865   -15.6811 CH2           1 RES     
    2259 CH2         35.3878    11.8570   -16.8884 CH2           1 RES     
    2260 CH2         36.1494    12.4070   -18.1087 CH2           1 RES     
    2261 CH2         35.9258    11.4774   -19.3159 CH2           1 RES     
    2262 CH2         36.6874    12.0274   -20.5362 CH2           1 RES     
    2263 CH2         36.4638    11.0979   -21.7435 CH2           1 RES     
    2264 CH2         37.2254    11.6479   -22.9638 CH2           1 RES     
    2265 C           27.7424    21.5712    -3.1278 C             1 RES     
    2266 O           27.3861    21.9089    -2.0000 O             1 RES     
    2267 O           27.7926    20.1531    -3.6139 O             1 RES     
    2268 CH2         27.8319    22.6357    -4.0054 CH2           1 RES     
    2269 CH2         28.2906    21.8801    -5.2665 CH2           1 RES     
    2270 CH2         28.6943    22.8928    -6.3542 CH2           1 RES     
    2271 CH2         29.1531    22.1372    -7.6152 CH2           1 RES     
    2272 CH2         29.5567    23.1499    -8.7030 CH2           1 RES     
    2273 CH2         30.0155    22.3942    -9.9640 CH2           1 RES     
    2274 CH2         30.4192    23.4069   -11.0517 CH2           1 RES     
    2275 CH2         30.8779    22.6513   -12.3127 CH2           1 RES     
    2276 CH2         31.2816    23.6640   -13.4005 CH2           1 RES     
    2277 CH2         31.7404    22.9083   -14.6615 CH2           1 RES     
    2278 CH2         32.1440    23.9210   -15.7492 CH2           1 RES     
    2279 CH2         32.6028    23.1654   -17.0102 CH2           1 RES     
    2280 CH2         33.0064    24.1781   -18.0980 CH2           1 RES     
    2281 CH2         33.4652    23.4225   -19.3590 CH2           1 RES     
    2282 CH2         33.8689    24.4351   -20.4467 CH2           1 RES     
    2283 C           34.3068    23.7139   -21.6504 C             1 RES     
    2284 C           32.5910    17.1885   -24.1162 C             1 RES     
    2285 CH2         27.7625    19.2534    -4.7507 CH2           1 RES     
    2286 CH2         28.3979    19.9454    -5.9709 CH2           1 RES     
    2287 CH2         28.3659    18.9898    -7.1782 CH2           1 RES     
    2288 CH2         29.0012    19.6818    -8.3985 CH2           1 RES     
    2289 CH2         28.9693    18.7263    -9.6058 CH2           1 RES     
    2290 CH2         29.6046    19.4183   -10.8260 CH2           1 RES     
    2291 CH2         29.5726    18.4628   -12.0333 CH2           1 RES     
    2292 CH2         30.2080    19.1548   -13.2536 CH2           1 RES     
    2293 CH2         30.1760    18.1992   -14.4609 CH2           1 RES     
    2294 CH2         30.8114    18.8912   -15.6811 CH2           1 RES     
    2295 CH2         30.7794    17.9357   -16.8884 CH2           1 RES     
    2296 CH2         31.4148    18.6277   -18.1087 CH2           1 RES     
    2297 CH2         31.3828    17.6722   -19.3159 CH2           1 RES     
    2298 CH2         32.0182    18.3642   -20.5362 CH2           1 RES     
    2299 CH2         31.9862    17.4086   -21.7435 CH2           1 RES     
    2300 CH2         32.6216    18.1006   -22.9638 CH2           1 RES     
    2301 C           33.1765    -0.3780    -3.1278 C             1 RES     
    2302 O           32.8634     0.0000    -2.0000 O             1 RES     
    2303 O           33.0560    -1.7919    -3.6139 O             1 RES     
    2304 CH2         33.3932     0.6680    -4.0054 CH2           1 RES     
    2305 CH2         33.7579    -0.1372    -5.2665 CH2           1 RES     
    2306 CH2         34.2802     0.8197    -6.3542 CH2           1 RES     
    2307 CH2         34.6449     0.0144    -7.6152 CH2           1 RES     
    2308 CH2         35.1673     0.9713    -8.7030 CH2           1 RES     
    2309 CH2         35.5320     0.1660    -9.9640 CH2           1 RES     
    2310 CH2         36.0543     1.1229   -11.0517 CH2           1 RES     
    2311 CH2         36.4190     0.3177   -12.3127 CH2           1 RES     
    2312 CH2         36.9414     1.2745   -13.4005 CH2           1 RES     
    2313 CH2         37.3061     0.4693   -14.6615 CH2           1 RES     
    2314 CH2         37.8285     1.4261   -15.7492 CH2           1 RES     
    2315 CH2         38.1932     0.6209   -17.0102 CH2           1 RES     
    2316 CH2         38.7155     1.5777   -18.0980 CH2           1 RES     
    2317 CH2         39.0802     0.7725   -19.3590 CH2           1 RES     
    2318 CH2         39.6026     1.7294   -20.4467 CH2           1 RES     
    2319 C           39.9507     0.9607   -21.6504 C             1 RES     
    2320 C           37.4637    -5.3113   -24.1162 C             1 RES     
    2321 CH2         32.9181    -2.6815    -4.7507 CH2           1 RES     
    2322 CH2         33.6319    -2.0708    -5.9709 CH2           1 RES     
    2323 CH2         33.4854    -3.0156    -7.1782 CH2           1 RES     
    2324 CH2         34.1993    -2.4049    -8.3985 CH2           1 RES     
    2325 CH2         34.0528    -3.3497    -9.6058 CH2           1 RES     
    2326 CH2         34.7667    -2.7390   -10.8260 CH2           1 RES     
    2327 CH2         34.6202    -3.6838   -12.0333 CH2           1 RES     
    2328 CH2         35.3341    -3.0731   -13.2536 CH2           1 RES     
    2329 CH2         35.1875    -4.0179   -14.4609 CH2           1 RES     
    2330 CH2         35.9014    -3.4072   -15.6811 CH2           1 RES     
    2331 CH2         35.7549    -4.3520   -16.8884 CH2           1 RES     
    2332 CH2         36.4688    -3.7413   -18.1087 CH2           1 RES     
    2333 CH2         36.3223    -4.6861   -19.3159 CH2           1 RES     
    2334 CH2         37.0362    -4.0754   -20.5362 CH2           1 RES     
    2335 CH2         36.8896    -5.0202   -21.7435 CH2           1 RES     
    2336 CH2         37.6035    -4.4095   -22.9638 CH2           1 RES     
    2337 C           27.6950    37.9590    -3.1278 C             1 RES     
    2338 O           27.3861    38.3406    -2.0000 O             1 RES     
    2339 O           27.5585    36.5466    -3.6139 O             1 RES     
    2340 CH2         27.9234    39.0026    -4.0054 CH2           1 RES     
    2341 CH2         28.2790    38.1933    -5.2665 CH2           1 RES     
    2342 CH2         28.8122    39.1442    -6.3542 CH2           1 RES     
    2343 CH2         29.1677    38.3349    -7.6152 CH2           1 RES     
    2344 CH2         29.7009    39.2858    -8.7030 CH2           1 RES     
    2345 CH2         30.0565    38.4764    -9.9640 CH2           1 RES     
    2346 CH2         30.5896    39.4273   -11.0517 CH2           1 RES     
    2347 CH2         30.9452    38.6180   -12.3127 CH2           1 RES     
    2348 CH2         31.4783    39.5689   -13.4005 CH2           1 RES     
    2349 CH2         31.8339    38.7596   -14.6615 CH2           1 RES     
    2350 CH2         32.3670    39.7105   -15.7492 CH2           1 RES     
    2351 CH2         32.7226    38.9012   -17.0102 CH2           1 RES     
    2352 CH2         33.2558    39.8521   -18.0980 CH2           1 RES     
    2353 CH2         33.6113    39.0428   -19.3590 CH2           1 RES     
    2354 CH2         34.1445    39.9936   -20.4467 CH2           1 RES     
    2355 C           34.4839    39.2211   -21.6504 C             1 RES     
    2356 C           31.9261    32.9776   -24.1162 C             1 RES     
    2357 CH2         27.4105    35.6586    -4.7507 CH2           1 RES     
    2358 CH2         28.1313    36.2612    -5.9709 CH2           1 RES     
    2359 CH2         27.9741    35.3181    -7.1782 CH2           1 RES     
    2360 CH2         28.6948    35.9207    -8.3985 CH2           1 RES     
    2361 CH2         28.5376    34.9777    -9.6058 CH2           1 RES     
    2362 CH2         29.2584    35.5802   -10.8260 CH2           1 RES     
    2363 CH2         29.1012    34.6372   -12.0333 CH2           1 RES     
    2364 CH2         29.8219    35.2397   -13.2536 CH2           1 RES     
    2365 CH2         29.6647    34.2967   -14.4609 CH2           1 RES     
    2366 CH2         30.3855    34.8993   -15.6811 CH2           1 RES     
    2367 CH2         30.2283    33.9562   -16.8884 CH2           1 RES     
    2368 CH2         30.9490    34.5588   -18.1087 CH2           1 RES     
    2369 CH2         30.7919    33.6157   -19.3159 CH2           1 RES     
    2370 CH2         31.5126    34.2183   -20.5362 CH2           1 RES     
    2371 CH2         31.3554    33.2752   -21.7435 CH2           1 RES     
    2372 CH2         32.0762    33.8778   -22.9638 CH2           1 RES     
    2373 C           38.5077    10.4929    -3.1278 C             1 RES     
    2374 O           38.3406    10.9545    -2.0000 O             1 RES     
    2375 O           37.9169     9.2027    -3.6139 O             1 RES     
    2376 CH2         39.0648    11.4044    -4.0054 CH2           1 RES     
    2377 CH2         39.1362    10.5233    -5.2665 CH2           1 RES     
    2378 CH2         39.9510    11.2476    -6.3542 CH2           1 RES     
    2379 CH2         40.0224    10.3665    -7.6152 CH2           1 RES     
    2380 CH2         40.8371    11.0908    -8.7030 CH2           1 RES     
    2381 CH2         40.9086    10.2097    -9.9640 CH2           1 RES     
    2382 CH2         41.7233    10.9340   -11.0517 CH2           1 RES     
    2383 CH2         41.7947    10.0529   -12.3127 CH2           1 RES     
    2384 CH2         42.6095    10.7772   -13.4005 CH2           1 RES     
    2385 CH2         42.6809     9.8961   -14.6615 CH2           1 RES     
    2386 CH2         43.4956    10.6204   -15.7492 CH2           1 RES     
    2387 CH2         43.5670     9.7394   -17.0102 CH2           1 RES     
    2388 CH2         44.3818    10.4637   -18.0980 CH2           1 RES     
    2389 CH2         44.4532     9.5826   -19.3590 CH2           1 RES     
    2390 CH2         45.2680    10.3069   -20.4467 CH2           1 RES     
    2391 C           45.3361     9.4658   -21.6504 C             1 RES     
    2392 C           40.8775     4.4018   -24.1162 C             1 RES     
    2393 CH2         37.4867     8.4119    -4.7507 CH2           1 RES     
    2394 CH2         38.3649     8.7457    -5.9709 CH2           1 RES     
    2395 CH2         37.9080     7.9059    -7.1782 CH2           1 RES     
    2396 CH2         38.7861     8.2397    -8.3985 CH2           1 RES     
    2397 CH2         38.3292     7.3999    -9.6058 CH2           1 RES     
    2398 CH2         39.2074     7.7337   -10.8260 CH2           1 RES     
    2399 CH2         38.7505     6.8938   -12.0333 CH2           1 RES     
    2400 CH2         39.6286     7.2276   -13.2536 CH2           1 RES     
    2401 CH2         39.1717     6.3878   -14.4609 CH2           1 RES     
    2402 CH2         40.0499     6.7216   -15.6811 CH2           1 RES     
    2403 CH2         39.5930     5.8818   -16.8884 CH2           1 RES     
    2404 CH2         40.4711     6.2155   -18.1087 CH2           1 RES     
    2405 CH2         40.0142     5.3757   -19.3159 CH2           1 RES     
    2406 CH2         40.8924     5.7095   -20.5362 CH2           1 RES     
    2407 CH2         40.4355     4.8697   -21.7435 CH2           1 RES     
    2408 CH2         41.3136     5.2035   -22.9638 CH2           1 RES     
    2409 C           22.1412    32.4309    -3.1278 C             1 RES     
    2410 O           21.9089    32.8634    -2.0000 O             1 RES     
    2411 O           21.7436    31.0687    -3.6139 O             1 RES     
    2412 CH2         22.5603    33.4135    -4.0054 CH2           1 RES     
    2413 CH2         22.7587    32.5521    -5.2665 CH2           1 RES     
    2414 CH2         23.4598    33.3868    -6.3542 CH2           1 RES     
    2415 CH2         23.6582    32.5254    -7.6152 CH2           1 RES     
    2416 CH2         24.3593    33.3602    -8.7030 CH2           1 RES     
    2417 CH2         24.5577    32.4987    -9.9640 CH2           1 RES     
    2418 CH2         25.2589    33.3335   -11.0517 CH2           1 RES     
    2419 CH2         25.4572    32.4720   -12.3127 CH2           1 RES     
    2420 CH2         26.1584    33.3068   -13.4005 CH2           1 RES     
    2421 CH2         26.3568    32.4454   -14.6615 CH2           1 RES     
    2422 CH2         27.0579    33.2801   -15.7492 CH2           1 RES     
    2423 CH2         27.2563    32.4187   -17.0102 CH2           1 RES     
    2424 CH2         27.9575    33.2534   -18.0980 CH2           1 RES     
    2425 CH2         28.1558    32.3920   -19.3590 CH2           1 RES     
    2426 CH2         28.8570    33.2268   -20.4467 CH2           1 RES     
    2427 C           29.0463    32.4045   -21.6504 C             1 RES     
    2428 C           25.3688    26.7477   -24.1162 C             1 RES     
    2429 CH2         21.4326    30.2239    -4.7507 CH2           1 RES     
    2430 CH2         22.2531    30.6815    -5.9709 CH2           1 RES     
    2431 CH2         21.9228    29.7843    -7.1782 CH2           1 RES     
    2432 CH2         22.7432    30.2419    -8.3985 CH2           1 RES     
    2433 CH2         22.4129    29.3447    -9.6058 CH2           1 RES     
    2434 CH2         23.2334    29.8022   -10.8260 CH2           1 RES     
    2435 CH2         22.9031    28.9050   -12.0333 CH2           1 RES     
    2436 CH2         23.7236    29.3626   -13.2536 CH2           1 RES     
    2437 CH2         23.3932    28.4654   -14.4609 CH2           1 RES     
    2438 CH2         24.2137    28.9230   -15.6811 CH2           1 RES     
    2439 CH2         23.8834    28.0258   -16.8884 CH2           1 RES     
    2440 CH2         24.7039    28.4833   -18.1087 CH2           1 RES     
    2441 CH2         24.3735    27.5861   -19.3159 CH2           1 RES     
    2442 CH2         25.1940    28.0437   -20.5362 CH2           1 RES     
    2443 CH2         24.8637    27.1465   -21.7435 CH2           1 RES     
    2444 CH2         25.6842    27.6041   -22.9638 CH2           1 RES     
    2445 C            0.2959    32.4717    -3.1278 C             1 RES     
    2446 O            0.0000    32.8634    -2.0000 O             1 RES     
    2447 O            0.1123    31.0646    -3.6139 O             1 RES     
    2448 CH2          0.5592    33.5070    -4.0054 CH2           1 RES     
    2449 CH2          0.8875    32.6863    -5.2665 CH2           1 RES     
    2450 CH2          1.4521    33.6188    -6.3542 CH2           1 RES     
    2451 CH2          1.7804    32.7981    -7.6152 CH2           1 RES     
    2452 CH2          2.3451    33.7306    -8.7030 CH2           1 RES     
    2453 CH2          2.6734    32.9098    -9.9640 CH2           1 RES     
    2454 CH2          3.2380    33.8424   -11.0517 CH2           1 RES     
    2455 CH2          3.5663    33.0216   -12.3127 CH2           1 RES     
    2456 CH2          4.1310    33.9542   -13.4005 CH2           1 RES     
    2457 CH2          4.4593    33.1334   -14.6615 CH2           1 RES     
    2458 CH2          5.0239    34.0659   -15.7492 CH2           1 RES     
    2459 CH2          5.3522    33.2452   -17.0102 CH2           1 RES     
    2460 CH2          5.9169    34.1777   -18.0980 CH2           1 RES     
    2461 CH2          6.2452    33.3570   -19.3590 CH2           1 RES     
    2462 CH2          6.8098    34.2895   -20.4467 CH2           1 RES     
    2463 C            7.1232    33.5061   -21.6504 C             1 RES     
    2464 C            4.3581    27.3516   -24.1162 C             1 RES     
    2465 CH2         -0.0653    30.1821    -4.7507 CH2           1 RES     
    2466 CH2          0.6752    30.7602    -5.9709 CH2           1 RES     
    2467 CH2          0.4866    29.8230    -7.1782 CH2           1 RES     
    2468 CH2          1.2270    30.4011    -8.3985 CH2           1 RES     
    2469 CH2          1.0384    29.4638    -9.6058 CH2           1 RES     
    2470 CH2          1.7789    30.0419   -10.8260 CH2           1 RES     
    2471 CH2          1.5903    29.1047   -12.0333 CH2           1 RES     
    2472 CH2          2.3308    29.6828   -13.2536 CH2           1 RES     
    2473 CH2          2.1421    28.7455   -14.4609 CH2           1 RES     
    2474 CH2          2.8826    29.3237   -15.6811 CH2           1 RES     
    2475 CH2          2.6940    28.3864   -16.8884 CH2           1 RES     
    2476 CH2          3.4345    28.9645   -18.1087 CH2           1 RES     
    2477 CH2          3.2458    28.0273   -19.3159 CH2           1 RES     
    2478 CH2          3.9863    28.6054   -20.5362 CH2           1 RES     
    2479 CH2          3.7977    27.6681   -21.7435 CH2           1 RES     
    2480 CH2          4.5382    28.2462   -22.9638 CH2           1 RES     
    2481 C           16.7471    21.5328    -3.1278 C             1 RES     
    2482 O           16.4317    21.9089    -2.0000 O             1 RES     
    2483 O           16.6353    20.1182    -3.6139 O             1 RES     
    2484 CH2         16.9574    22.5802    -4.0054 CH2           1 RES     
    2485 CH2         17.3270    21.7772    -5.2665 CH2           1 RES     
    2486 CH2         17.8435    22.7372    -6.3542 CH2           1 RES     
    2487 CH2         18.2131    21.9342    -7.6152 CH2           1 RES     
    2488 CH2         18.7296    22.8942    -8.7030 CH2           1 RES     
    2489 CH2         19.0992    22.0912    -9.9640 CH2           1 RES     
    2490 CH2         19.6158    23.0512   -11.0517 CH2           1 RES     
    2491 CH2         19.9854    22.2482   -12.3127 CH2           1 RES     
    2492 CH2         20.5019    23.2082   -13.4005 CH2           1 RES     
    2493 CH2         20.8715    22.4052   -14.6615 CH2           1 RES     
    2494 CH2         21.3880    23.3653   -15.7492 CH2           1 RES     
    2495 CH2         21.7576    22.5623   -17.0102 CH2           1 RES     
    2496 CH2         22.2741    23.5223   -18.0980 CH2           1 RES     
    2497 CH2         22.6437    22.7193   -19.3590 CH2           1 RES     
    2498 CH2         23.1602    23.6793   -20.4467 CH2           1 RES     
    2499 C           23.5130    22.9128   -21.6504 C             1 RES     
    2500 C           21.0643    16.6257   -24.1162 C             1 RES     
    2501 CH2         16.5027    19.2278    -4.7507 CH2           1 RES     
    2502 CH2         17.2129    19.8428    -5.9709 CH2           1 RES     
    2503 CH2         17.0721    18.8972    -7.1782 CH2           1 RES     
    2504 CH2         17.7823    19.5122    -8.3985 CH2           1 RES     
    2505 CH2         17.6415    18.5665    -9.6058 CH2           1 RES     
    2506 CH2         18.3517    19.1815   -10.8260 CH2           1 RES     
    2507 CH2         18.2109    18.2359   -12.0333 CH2           1 RES     
    2508 CH2         18.9211    18.8509   -13.2536 CH2           1 RES     
    2509 CH2         18.7803    17.9053   -14.4609 CH2           1 RES     
    2510 CH2         19.4905    18.5203   -15.6811 CH2           1 RES     
    2511 CH2         19.3497    17.5746   -16.8884 CH2           1 RES     
    2512 CH2         20.0599    18.1897   -18.1087 CH2           1 RES     
    2513 CH2         19.9191    17.2440   -19.3159 CH2           1 RES     
    2514 CH2         20.6292    17.8590   -20.5362 CH2           1 RES     
    2515 CH2         20.4885    16.9134   -21.7435 CH2           1 RES     
    2516 CH2         21.1986    17.5284   -22.9638 CH2           1 RES     
    2517 C           38.5662    26.9502    -3.1278 C             1 RES     
    2518 O           38.3406    27.3861    -2.0000 O             1 RES     
    2519 O           38.1481    25.5942    -3.6139 O             1 RES     
    2520 CH2         39.0002    27.9264    -4.0054 CH2           1 RES     
    2521 CH2         39.1855    27.0620    -5.2665 CH2           1 RES     
    2522 CH2         39.8992    27.8860    -6.3542 CH2           1 RES     
    2523 CH2         40.0845    27.0217    -7.6152 CH2           1 RES     
    2524 CH2         40.7983    27.8457    -8.7030 CH2           1 RES     
    2525 CH2         40.9836    26.9814    -9.9640 CH2           1 RES     
    2526 CH2         41.6973    27.8054   -11.0517 CH2           1 RES     
    2527 CH2         41.8826    26.9411   -12.3127 CH2           1 RES     
    2528 CH2         42.5963    27.7651   -13.4005 CH2           1 RES     
    2529 CH2         42.7816    26.9007   -14.6615 CH2           1 RES     
    2530 CH2         43.4953    27.7248   -15.7492 CH2           1 RES     
    2531 CH2         43.6806    26.8604   -17.0102 CH2           1 RES     
    2532 CH2         44.3943    27.6845   -18.0980 CH2           1 RES     
    2533 CH2         44.5796    26.8201   -19.3590 CH2           1 RES     
    2534 CH2         45.2934    27.6441   -20.4467 CH2           1 RES     
    2535 C           45.4702    26.8191   -21.6504 C             1 RES     
    2536 C           41.7074    21.2187   -24.1162 C             1 RES     
    2537 CH2         37.8243    24.7542    -4.7507 CH2           1 RES     
    2538 CH2         38.6516    25.1993    -5.9709 CH2           1 RES     
    2539 CH2         38.3077    24.3072    -7.1782 CH2           1 RES     
    2540 CH2         39.1351    24.7523    -8.3985 CH2           1 RES     
    2541 CH2         38.7912    23.8602    -9.6058 CH2           1 RES     
    2542 CH2         39.6185    24.3053   -10.8260 CH2           1 RES     
    2543 CH2         39.2746    23.4132   -12.0333 CH2           1 RES     
    2544 CH2         40.1019    23.8582   -13.2536 CH2           1 RES     
    2545 CH2         39.7580    22.9662   -14.4609 CH2           1 RES     
    2546 CH2         40.5854    23.4112   -15.6811 CH2           1 RES     
    2547 CH2         40.2415    22.5192   -16.8884 CH2           1 RES     
    2548 CH2         41.0688    22.9642   -18.1087 CH2           1 RES     
    2549 CH2         40.7249    22.0721   -19.3159 CH2           1 RES     
    2550 CH2         41.5522    22.5172   -20.5362 CH2           1 RES     
    2551 CH2         41.2083    21.6251   -21.7435 CH2           1 RES     
    2552 CH2         42.0357    22.0702   -22.9638 CH2           1 RES     
    2553 C           38.5363    15.9815    -3.1278 C             1 RES     
    2554 O           38.3406    16.4317    -2.0000 O             1 RES     
    2555 O           38.0274    14.6568    -3.6139 O             1 RES     
    2556 CH2         39.0352    16.9261    -4.0054 CH2           1 RES     
    2557 CH2         39.1617    16.0512    -5.2665 CH2           1 RES     
    2558 CH2         39.9295    16.8251    -6.3542 CH2           1 RES     
    2559 CH2         40.0559    15.9502    -7.6152 CH2           1 RES     
    2560 CH2         40.8237    16.7241    -8.7030 CH2           1 RES     
    2561 CH2         40.9501    15.8492    -9.9640 CH2           1 RES     
    2562 CH2         41.7180    16.6231   -11.0517 CH2           1 RES     
    2563 CH2         41.8444    15.7482   -12.3127 CH2           1 RES     
    2564 CH2         42.6122    16.5221   -13.4005 CH2           1 RES     
    2565 CH2         42.7386    15.6472   -14.6615 CH2           1 RES     
    2566 CH2         43.5064    16.4211   -15.7492 CH2           1 RES     
    2567 CH2         43.6329    15.5462   -17.0102 CH2           1 RES     
    2568 CH2         44.4007    16.3201   -18.0980 CH2           1 RES     
    2569 CH2         44.5271    15.4452   -19.3590 CH2           1 RES     
    2570 CH2         45.2949    16.2190   -20.4467 CH2           1 RES     
    2571 C           45.4156    15.3839   -21.6504 C             1 RES     
    2572 C           41.2827    10.0507   -24.1162 C             1 RES     
    2573 CH2         37.6476    13.8407    -4.7507 CH2           1 RES     
    2574 CH2         38.5031    14.2288    -5.9709 CH2           1 RES     
    2575 CH2         38.0997    13.3620    -7.1782 CH2           1 RES     
    2576 CH2         38.9552    13.7501    -8.3985 CH2           1 RES     
    2577 CH2         38.5518    12.8834    -9.6058 CH2           1 RES     
    2578 CH2         39.4073    13.2715   -10.8260 CH2           1 RES     
    2579 CH2         39.0039    12.4047   -12.0333 CH2           1 RES     
    2580 CH2         39.8594    12.7928   -13.2536 CH2           1 RES     
    2581 CH2         39.4560    11.9260   -14.4609 CH2           1 RES     
    2582 CH2         40.3115    12.3141   -15.6811 CH2           1 RES     
    2583 CH2         39.9081    11.4473   -16.8884 CH2           1 RES     
    2584 CH2         40.7636    11.8354   -18.1087 CH2           1 RES     
    2585 CH2         40.3602    10.9687   -19.3159 CH2           1 RES     
    2586 CH2         41.2157    11.3568   -20.5362 CH2           1 RES     
    2587 CH2         40.8123    10.4900   -21.7435 CH2           1 RES     
    2588 CH2         41.6678    10.8781   -22.9638 CH2           1 RES     
    2589 C           27.5943    10.5099    -3.1278 C             1 RES     
    2590 O           27.3861    10.9545    -2.0000 O             1 RES     
    2591 O           27.1228     9.1715    -3.6139 O             1 RES     
    2592 CH2         28.0667    11.4681    -4.0054 CH2           1 RES     
    2593 CH2         28.2176    10.5971    -5.2665 CH2           1 RES     
    2594 CH2         28.9634    11.3922    -6.3542 CH2           1 RES     
    2595 CH2         29.1143    10.5212    -7.6152 CH2           1 RES     
    2596 CH2         29.8601    11.3163    -8.7030 CH2           1 RES     
    2597 CH2         30.0110    10.4453    -9.9640 CH2           1 RES     
    2598 CH2         30.7568    11.2404   -11.0517 CH2           1 RES     
    2599 CH2         30.9077    10.3694   -12.3127 CH2           1 RES     
    2600 CH2         31.6535    11.1645   -13.4005 CH2           1 RES     
    2601 CH2         31.8044    10.2935   -14.6615 CH2           1 RES     
    2602 CH2         32.5502    11.0886   -15.7492 CH2           1 RES     
    2603 CH2         32.7011    10.2176   -17.0102 CH2           1 RES     
    2604 CH2         33.4470    11.0127   -18.0980 CH2           1 RES     
    2605 CH2         33.5979    10.1417   -19.3590 CH2           1 RES     
    2606 CH2         34.3437    10.9368   -20.4467 CH2           1 RES     
    2607 C           34.4877    10.1053   -21.6504 C             1 RES     
    2608 C           30.5059     4.6584   -24.1162 C             1 RES     
    2609 CH2         26.7660     8.3451    -4.7507 CH2           1 RES     
    2610 CH2         27.6103     8.7570    -5.9709 CH2           1 RES     
    2611 CH2         27.2313     7.8793    -7.1782 CH2           1 RES     
    2612 CH2         28.0756     8.2912    -8.3985 CH2           1 RES     
    2613 CH2         27.6967     7.4134    -9.6058 CH2           1 RES     
    2614 CH2         28.5410     7.8254   -10.8260 CH2           1 RES     
    2615 CH2         28.1620     6.9476   -12.0333 CH2           1 RES     
    2616 CH2         29.0063     7.3595   -13.2536 CH2           1 RES     
    2617 CH2         28.6273     6.4818   -14.4609 CH2           1 RES     
    2618 CH2         29.4717     6.8937   -15.6811 CH2           1 RES     
    2619 CH2         29.0927     6.0160   -16.8884 CH2           1 RES     
    2620 CH2         29.9370     6.4279   -18.1087 CH2           1 RES     
    2621 CH2         29.5580     5.5502   -19.3159 CH2           1 RES     
    2622 CH2         30.4023     5.9621   -20.5362 CH2           1 RES     
    2623 CH2         30.0233     5.0844   -21.7435 CH2           1 RES     
    2624 CH2         30.8677     5.4963   -22.9638 CH2           1 RES     
    2625 N           34.9176    16.4317   -49.8745 N             1 RES     
    2626 C           34.3724    15.1571   -50.2252 C             1 RES     
    2627 C           36.2030    16.6339   -50.1894 C             1 RES     
    2628 C           34.1564    17.3731   -50.4082 C             1 RES     
    2629 CH2         34.7178    16.6305   -48.5110 CH2           1 RES     
    2630 CH2         35.6139    15.5245   -47.9233 CH2           1 RES     
    2631 P           34.3440    14.6092   -45.9783 P             1 RES     
    2632 O           34.2341    14.6249   -44.3821 O             1 RES     
    2633 O           35.5419    15.5638   -46.4406 O             1 RES     
    2634 O           34.6667    13.1012   -46.4049 O             1 RES     
    2635 O           32.9589    15.1773   -46.5429 O             1 RES     
    2636 CH2         33.1153    13.7305   -43.9903 CH2           1 RES     
    2637 CH2         33.0070    15.2561   -42.3515 CH2           1 RES     
    2638 CH2         32.9785    13.7200   -42.4565 CH2           1 RES     
    2639 C           31.6693    15.6875   -40.7186 C             1 RES     
    2640 O           32.6348    15.2983   -40.0634 O             1 RES     
    2641 O           31.6342    15.7643   -42.2163 O             1 RES     
    2642 CH2         30.5140    15.7899   -39.9662 CH2           1 RES     
    2643 CH2         31.0631    15.3275   -38.6037 CH2           1 RES     
    2644 CH2         29.8953    15.1266   -37.6202 CH2           1 RES     
    2645 CH2         30.4444    14.6642   -36.2577 CH2           1 RES     
    2646 CH2         29.2766    14.4633   -35.2742 CH2           1 RES     
    2647 CH2         29.8257    14.0008   -33.9117 CH2           1 RES     
    2648 CH2         28.6579    13.7999   -32.9282 CH2           1 RES     
    2649 CH2         29.2070    13.3375   -31.5658 CH2           1 RES     
    2650 CH2         28.0392    13.1366   -30.5822 CH2           1 RES     
    2651 CH2         28.5883    12.6741   -29.2198 CH2           1 RES     
    2652 CH2         27.4205    12.4732   -28.2362 CH2           1 RES     
    2653 CH2         27.9696    12.0108   -26.8738 CH2           1 RES     
    2654 C           26.8548    11.8190   -25.9349 C             1 RES     
    2655 C           31.2081    13.0123   -41.5403 C             1 RES     
    2656 O           31.7043    13.5355   -40.5439 O             1 RES     
    2657 O           31.8439    12.9995   -42.8989 O             1 RES     
    2658 CH2         30.1356    12.1929   -41.2406 CH2           1 RES     
    2659 CH2         30.1142    12.3617   -39.7100 CH2           1 RES     
    2660 CH2         29.1318    11.3478   -39.0948 CH2           1 RES     
    2661 CH2         29.1104    11.5165   -37.5642 CH2           1 RES     
    2662 CH2         28.1280    10.5026   -36.9489 CH2           1 RES     
    2663 CH2         28.1066    10.6714   -35.4184 CH2           1 RES     
    2664 CH2         27.1242     9.6575   -34.8031 CH2           1 RES     
    2665 CH2         27.1028     9.8263   -33.2725 CH2           1 RES     
    2666 CH2         26.1204     8.8124   -32.6572 CH2           1 RES     
    2667 CH2         26.0990     8.9812   -31.1267 CH2           1 RES     
    2668 CH2         25.1166     7.9673   -30.5114 CH2           1 RES     
    2669 CH2         25.0952     8.1360   -28.9808 CH2           1 RES     
    2670 C           24.1575     7.1682   -28.3935 C             1 RES     
    2671 N           45.8721    27.3861   -49.8745 N             1 RES     
    2672 C           45.0805    26.2480   -50.2252 C             1 RES     
    2673 C           47.1717    27.3244   -50.1894 C             1 RES     
    2674 C           45.3168    28.4620   -50.4082 C             1 RES     
    2675 CH2         45.7166    27.6213   -48.5110 CH2           1 RES     
    2676 CH2         46.3707    26.3570   -47.9233 CH2           1 RES     
    2677 P           44.9420    25.7172   -45.9783 P             1 RES     
    2678 O           44.8375    25.7547   -44.3821 O             1 RES     
    2679 O           46.3081    26.4100   -46.4406 O             1 RES     
    2680 O           44.9533    24.1751   -46.4049 O             1 RES     
    2681 O           43.7003    26.5535   -46.5429 O             1 RES     
    2682 CH2         43.5610    25.1050   -43.9903 CH2           1 RES     
    2683 CH2         43.7633    26.6210   -42.3515 CH2           1 RES     
    2684 CH2         43.4249    25.1223   -42.4565 CH2           1 RES     
    2685 C           42.5404    27.3138   -40.7186 C             1 RES     
    2686 O           43.4073    26.7375   -40.0634 O             1 RES     
    2687 O           42.5215    27.3961   -42.2163 O             1 RES     
    2688 CH2         41.4296    27.6476   -39.9662 CH2           1 RES     
    2689 CH2         41.8739    27.0837   -38.6037 CH2           1 RES     
    2690 CH2         40.6896    27.1230   -37.6202 CH2           1 RES     
    2691 CH2         41.1339    26.5591   -36.2577 CH2           1 RES     
    2692 CH2         39.9496    26.5984   -35.2742 CH2           1 RES     
    2693 CH2         40.3939    26.0345   -33.9117 CH2           1 RES     
    2694 CH2         39.2096    26.0738   -32.9282 CH2           1 RES     
    2695 CH2         39.6540    25.5099   -31.5658 CH2           1 RES     
    2696 CH2         38.4696    25.5492   -30.5822 CH2           1 RES     
    2697 CH2         38.9140    24.9853   -29.2198 CH2           1 RES     
    2698 CH2         37.7296    25.0245   -28.2362 CH2           1 RES     
    2699 CH2         38.1740    24.4607   -26.8738 CH2           1 RES     
    2700 C           37.0435    24.4982   -25.9349 C             1 RES     
    2701 C           41.5481    24.7870   -41.5403 C             1 RES     
    2702 O           42.1397    25.1991   -40.5439 O             1 RES     
    2703 O           42.1681    24.6460   -42.8989 O             1 RES     
    2704 CH2         40.3321    24.2013   -41.2406 CH2           1 RES     
    2705 CH2         40.3452    24.3709   -39.7100 CH2           1 RES     
    2706 CH2         39.1782    23.5764   -39.0948 CH2           1 RES     
    2707 CH2         39.1913    23.7460   -37.5642 CH2           1 RES     
    2708 CH2         38.0243    22.9516   -36.9489 CH2           1 RES     
    2709 CH2         38.0375    23.1212   -35.4184 CH2           1 RES     
    2710 CH2         36.8704    22.3268   -34.8031 CH2           1 RES     
    2711 CH2         36.8836    22.4964   -33.2725 CH2           1 RES     
    2712 CH2         35.7166    21.7020   -32.6572 CH2           1 RES     
    2713 CH2         35.7297    21.8716   -31.1267 CH2           1 RES     
    2714 CH2         34.5627    21.0771   -30.5114 CH2           1 RES     
    2715 CH2         34.5758    21.2468   -28.9808 CH2           1 RES     
    2716 C           33.4618    20.4884   -28.3935 C             1 RES     
    2717 N           13.0087    38.3406   -49.8745 N             1 RES     
    2718 C           12.2902    37.1550   -50.2252 C             1 RES     
    2719 C           14.3097    38.3606   -50.1894 C             1 RES     
    2720 C           12.3869    39.3794   -50.4082 C             1 RES     
    2721 CH2         12.8388    38.5655   -48.5110 CH2           1 RES     
    2722 CH2         13.5710    37.3448   -47.9233 CH2           1 RES     
    2723 P           12.1853    36.6165   -45.9783 P             1 RES     
    2724 O           12.0787    36.6474   -44.3821 O             1 RES     
    2725 O           13.5052    37.3938   -46.4406 O             1 RES     
    2726 O           12.2935    35.0782   -46.4049 O             1 RES     
    2727 O           10.8936    37.3732   -46.5429 O             1 RES     
    2728 CH2         10.8455    35.9188   -43.9903 CH2           1 RES     
    2729 CH2         10.9521    37.4445   -42.3515 CH2           1 RES     
    2730 CH2         10.7086    35.9275   -42.4565 CH2           1 RES     
    2731 C            9.6882    38.0591   -40.7186 C             1 RES     
    2732 O           10.5895    37.5384   -40.0634 O             1 RES     
    2733 O            9.6642    38.1400   -42.2163 O             1 RES     
    2734 CH2          8.5586    38.3224   -39.9662 CH2           1 RES     
    2735 CH2          9.0375    37.7876   -38.6037 CH2           1 RES     
    2736 CH2          7.8530    37.7524   -37.6202 CH2           1 RES     
    2737 CH2          8.3319    37.2175   -36.2577 CH2           1 RES     
    2738 CH2          7.1474    37.1823   -35.2742 CH2           1 RES     
    2739 CH2          7.6263    36.6475   -33.9117 CH2           1 RES     
    2740 CH2          6.4419    36.6123   -32.9282 CH2           1 RES     
    2741 CH2          6.9207    36.0774   -31.5658 CH2           1 RES     
    2742 CH2          5.7363    36.0422   -30.5822 CH2           1 RES     
    2743 CH2          6.2152    35.5074   -29.2198 CH2           1 RES     
    2744 CH2          5.0307    35.4721   -28.2362 CH2           1 RES     
    2745 CH2          5.5096    34.9373   -26.8738 CH2           1 RES     
    2746 C            4.3790    34.9037   -25.9349 C             1 RES     
    2747 C            8.8565    35.4749   -41.5403 C             1 RES     
    2748 O            9.4211    35.9234   -40.5439 O             1 RES     
    2749 O            9.4842    35.3731   -42.8989 O             1 RES     
    2750 CH2          7.6798    34.8140   -41.2406 CH2           1 RES     
    2751 CH2          7.6822    34.9841   -39.7100 CH2           1 RES     
    2752 CH2          6.5674    34.1179   -39.0948 CH2           1 RES     
    2753 CH2          6.5699    34.2880   -37.5642 CH2           1 RES     
    2754 CH2          5.4551    33.4218   -36.9489 CH2           1 RES     
    2755 CH2          5.4575    33.5919   -35.4184 CH2           1 RES     
    2756 CH2          4.3427    32.7257   -34.8031 CH2           1 RES     
    2757 CH2          4.3452    32.8958   -33.2725 CH2           1 RES     
    2758 CH2          3.2304    32.0297   -32.6572 CH2           1 RES     
    2759 CH2          3.2328    32.1998   -31.1267 CH2           1 RES     
    2760 CH2          2.1180    31.3336   -30.5114 CH2           1 RES     
    2761 CH2          2.1204    31.5037   -28.9808 CH2           1 RES     
    2762 C            1.0563    30.6769   -28.3935 C             1 RES     
    2763 N           18.4859     5.4772   -49.8745 N             1 RES     
    2764 C           17.5932     4.4166   -50.2252 C             1 RES     
    2765 C           19.7744     5.2963   -50.1894 C             1 RES     
    2766 C           18.0319     6.5996   -50.4082 C             1 RES     
    2767 CH2         18.3527     5.7256   -48.5110 CH2           1 RES     
    2768 CH2         18.8879     4.4066   -47.9233 CH2           1 RES     
    2769 P           17.4064     3.9008   -45.9783 P             1 RES     
    2770 O           17.3059     3.9478   -44.3821 O             1 RES     
    2771 O           18.8304     4.4652   -46.4406 O             1 RES     
    2772 O           17.2760     2.3642   -46.4049 O             1 RES     
    2773 O           16.2469     4.8477   -46.5429 O             1 RES     
    2774 CH2         15.9751     3.4181   -43.9903 CH2           1 RES     
    2775 CH2         16.3158     4.9091   -42.3515 CH2           1 RES     
    2776 CH2         15.8412     3.4478   -42.4565 CH2           1 RES     
    2777 C           15.1617     5.7114   -40.7186 C             1 RES     
    2778 O           15.9720     5.0579   -40.0634 O             1 RES     
    2779 O           15.1505     5.7950   -42.2163 O             1 RES     
    2780 CH2         14.0863     6.1458   -39.9662 CH2           1 RES     
    2781 CH2         14.4769     5.5435   -38.6037 CH2           1 RES     
    2782 CH2         13.3012     5.6914   -37.6202 CH2           1 RES     
    2783 CH2         13.6919     5.0891   -36.2577 CH2           1 RES     
    2784 CH2         12.5162     5.2370   -35.2742 CH2           1 RES     
    2785 CH2         12.9068     4.6347   -33.9117 CH2           1 RES     
    2786 CH2         11.7311     4.7826   -32.9282 CH2           1 RES     
    2787 CH2         12.1217     4.1803   -31.5658 CH2           1 RES     
    2788 CH2         10.9460     4.3282   -30.5822 CH2           1 RES     
    2789 CH2         11.3367     3.7259   -29.2198 CH2           1 RES     
    2790 CH2         10.1610     3.8738   -28.2362 CH2           1 RES     
    2791 CH2         10.5516     3.2715   -26.8738 CH2           1 RES     
    2792 C            9.4293     3.4127   -25.9349 C             1 RES     
    2793 C           13.9414     3.2864   -41.5403 C             1 RES     
    2794 O           14.5685     3.6424   -40.5439 O             1 RES     
    2795 O           14.5459     3.0890   -42.8989 O             1 RES     
    2796 CH2         12.6768     2.8148   -41.2406 CH2           1 RES     
    2797 CH2         12.7054     2.9825   -39.7100 CH2           1 RES     
    2798 CH2         11.4704     2.2987   -39.0948 CH2           1 RES     
    2799 CH2         11.4990     2.4664   -37.5642 CH2           1 RES     
    2800 CH2         10.2639     1.7825   -36.9489 CH2           1 RES     
    2801 CH2         10.2926     1.9502   -35.4184 CH2           1 RES     
    2802 CH2          9.0575     1.2664   -34.8031 CH2           1 RES     
    2803 CH2          9.0862     1.4341   -33.2725 CH2           1 RES     
    2804 CH2          7.8511     0.7502   -32.6572 CH2           1 RES     
    2805 CH2          7.8798     0.9179   -31.1267 CH2           1 RES     
    2806 CH2          6.6447     0.2341   -30.5114 CH2           1 RES     
    2807 CH2          6.6734     0.4018   -28.9808 CH2           1 RES     
    2808 C            5.4944    -0.2510   -28.3935 C             1 RES     
    2809 N           23.9632    10.9545   -49.8745 N             1 RES     
    2810 C           23.3036     9.7351   -50.2252 C             1 RES     
    2811 C           25.2616    11.0382   -50.1894 C             1 RES     
    2812 C           23.2912    11.9616   -50.4082 C             1 RES     
    2813 CH2         23.7824    11.1708   -48.5110 CH2           1 RES     
    2814 CH2         24.5735     9.9874   -47.9233 CH2           1 RES     
    2815 P           23.2252     9.1921   -45.9783 P             1 RES     
    2816 O           23.1172     9.2178   -44.3821 O             1 RES     
    2817 O           24.5054    10.0331   -46.4406 O             1 RES     
    2818 O           23.4086     7.6609   -46.4049 O             1 RES     
    2819 O           21.8979     9.8846   -46.5429 O             1 RES     
    2820 CH2         21.9212     8.4296   -43.9903 CH2           1 RES     
    2821 CH2         21.9530     9.9587   -42.3515 CH2           1 RES     
    2822 CH2         21.7841     8.4316   -42.4565 CH2           1 RES     
    2823 C           20.6604    10.5107   -40.7186 C             1 RES     
    2824 O           21.5862    10.0348   -40.0634 O             1 RES     
    2825 O           20.6325    10.5903   -42.2163 O             1 RES     
    2826 CH2         19.5193    10.7183   -39.9662 CH2           1 RES     
    2827 CH2         20.0238    10.2076   -38.6037 CH2           1 RES     
    2828 CH2         18.8425    10.1144   -37.6202 CH2           1 RES     
    2829 CH2         19.3470     9.6037   -36.2577 CH2           1 RES     
    2830 CH2         18.1657     9.5105   -35.2742 CH2           1 RES     
    2831 CH2         18.6702     8.9997   -33.9117 CH2           1 RES     
    2832 CH2         17.4889     8.9065   -32.9282 CH2           1 RES     
    2833 CH2         17.9934     8.3958   -31.5658 CH2           1 RES     
    2834 CH2         16.8121     8.3026   -30.5822 CH2           1 RES     
    2835 CH2         17.3166     7.7918   -29.2198 CH2           1 RES     
    2836 CH2         16.1353     7.6986   -28.2362 CH2           1 RES     
    2837 CH2         16.6398     7.1879   -26.8738 CH2           1 RES     
    2838 C           15.5121     7.0989   -25.9349 C             1 RES     
    2839 C           19.9564     7.8888   -41.5403 C             1 RES     
    2840 O           20.4983     8.3645   -40.5439 O             1 RES     
    2841 O           20.5883     7.8179   -42.8989 O             1 RES     
    2842 CH2         18.8134     7.1710   -41.2406 CH2           1 RES     
    2843 CH2         18.8075     7.3410   -39.7100 CH2           1 RES     
    2844 CH2         17.7365     6.4213   -39.0948 CH2           1 RES     
    2845 CH2         17.7306     6.5913   -37.5642 CH2           1 RES     
    2846 CH2         16.6595     5.6716   -36.9489 CH2           1 RES     
    2847 CH2         16.6537     5.8416   -35.4184 CH2           1 RES     
    2848 CH2         15.5826     4.9218   -34.8031 CH2           1 RES     
    2849 CH2         15.5767     5.0918   -33.2725 CH2           1 RES     
    2850 CH2         14.5057     4.1721   -32.6572 CH2           1 RES     
    2851 CH2         14.4998     4.3421   -31.1267 CH2           1 RES     
    2852 CH2         13.4288     3.4224   -30.5114 CH2           1 RES     
    2853 CH2         13.4229     3.5924   -28.9808 CH2           1 RES     
    2854 C           12.4005     2.7144   -28.3935 C             1 RES     
    2855 N            7.5315    32.8634   -49.8745 N             1 RES     
    2856 C            6.5330    31.9016   -50.2252 C             1 RES     
    2857 C            8.7941    32.5491   -50.1894 C             1 RES     
    2858 C            7.1969    34.0269   -50.4082 C             1 RES     
    2859 CH2          7.4249    33.1243   -48.5110 CH2           1 RES     
    2860 CH2          7.8196    31.7567   -47.9233 CH2           1 RES     
    2861 P            6.2935    31.4080   -45.9783 P             1 RES     
    2862 O            6.1984    31.4653   -44.3821 O             1 RES     
    2863 O            7.7686    31.8209   -46.4406 O             1 RES     
    2864 O            6.0036    29.8935   -46.4049 O             1 RES     
    2865 O            5.2390    32.4707   -46.5429 O             1 RES     
    2866 CH2          4.8196    31.0772   -43.9903 CH2           1 RES     
    2867 CH2          5.3139    32.5246   -42.3515 CH2           1 RES     
    2868 CH2          4.6895    31.1207   -42.4565 CH2           1 RES     
    2869 C            4.2498    33.4428   -40.7186 C             1 RES     
    2870 O            4.9875    32.7084   -40.0634 O             1 RES     
    2871 O            4.2473    33.5271   -42.2163 O             1 RES     
    2872 CH2          3.2255    33.9869   -39.9662 CH2           1 RES     
    2873 CH2          3.5512    33.3472   -38.6037 CH2           1 RES     
    2874 CH2          2.3974    33.6168   -37.6202 CH2           1 RES     
    2875 CH2          2.7231    32.9771   -36.2577 CH2           1 RES     
    2876 CH2          1.5692    33.2468   -35.2742 CH2           1 RES     
    2877 CH2          1.8949    32.6070   -33.9117 CH2           1 RES     
    2878 CH2          0.7410    32.8767   -32.9282 CH2           1 RES     
    2879 CH2          1.0668    32.2369   -31.5658 CH2           1 RES     
    2880 CH2         -0.0871    32.5066   -30.5822 CH2           1 RES     
    2881 CH2          0.2386    31.8669   -29.2198 CH2           1 RES     
    2882 CH2         -0.9153    32.1365   -28.2362 CH2           1 RES     
    2883 CH2         -0.5896    31.4968   -26.8738 CH2           1 RES     
    2884 C           -1.6910    31.7542   -25.9349 C             1 RES     
    2885 C            2.7833    31.1582   -41.5403 C             1 RES     
    2886 O            3.4441    31.4470   -40.5439 O             1 RES     
    2887 O            3.3639    30.8989   -42.8989 O             1 RES     
    2888 CH2          1.4764    30.8211   -41.2406 CH2           1 RES     
    2889 CH2          1.5224    30.9849   -39.7100 CH2           1 RES     
    2890 CH2          0.2228    30.4335   -39.0948 CH2           1 RES     
    2891 CH2          0.2688    30.5973   -37.5642 CH2           1 RES     
    2892 CH2         -1.0309    30.0459   -36.9489 CH2           1 RES     
    2893 CH2         -0.9849    30.2097   -35.4184 CH2           1 RES     
    2894 CH2         -2.2845    29.6584   -34.8031 CH2           1 RES     
    2895 CH2         -2.2385    29.8222   -33.2725 CH2           1 RES     
    2896 CH2         -3.5382    29.2708   -32.6572 CH2           1 RES     
    2897 CH2         -3.4922    29.4346   -31.1267 CH2           1 RES     
    2898 CH2         -4.7918    28.8832   -30.5114 CH2           1 RES     
    2899 CH2         -4.7459    29.0470   -28.9808 CH2           1 RES     
    2900 C           -5.9864    28.5207   -28.3935 C             1 RES     
    2901 N           23.9632    38.3406   -49.8745 N             1 RES     
    2902 C           23.0071    37.3367   -50.2252 C             1 RES     
    2903 C           25.2382    38.0811   -50.1894 C             1 RES     
    2904 C           23.5787    39.4886   -50.4082 C             1 RES     
    2905 CH2         23.8454    38.5967   -48.5110 CH2           1 RES     
    2906 CH2         24.2987    37.2473   -47.9233 CH2           1 RES     
    2907 P           22.7891    36.8332   -45.9783 P             1 RES     
    2908 O           22.6917    36.8863   -44.3821 O             1 RES     
    2909 O           24.2450    37.3093   -46.4406 O             1 RES     
    2910 O           22.5648    35.3075   -46.4049 O             1 RES     
    2911 O           21.6897    37.8494   -46.5429 O             1 RES     
    2912 CH2         21.3309    36.4391   -43.9903 CH2           1 RES     
    2913 CH2         21.7623    37.9064   -42.3515 CH2           1 RES     
    2914 CH2         21.1990    36.4770   -42.4565 CH2           1 RES     
    2915 C           20.6595    38.7779   -40.7186 C             1 RES     
    2916 O           21.4282    38.0760   -40.0634 O             1 RES     
    2917 O           20.6535    38.8620   -42.2163 O             1 RES     
    2918 CH2         19.6127    39.2774   -39.9662 CH2           1 RES     
    2919 CH2         19.9658    38.6523   -38.6037 CH2           1 RES     
    2920 CH2         18.8013    38.8719   -37.6202 CH2           1 RES     
    2921 CH2         19.1543    38.2468   -36.2577 CH2           1 RES     
    2922 CH2         17.9899    38.4665   -35.2742 CH2           1 RES     
    2923 CH2         18.3429    37.8413   -33.9117 CH2           1 RES     
    2924 CH2         17.1784    38.0610   -32.9282 CH2           1 RES     
    2925 CH2         17.5315    37.4359   -31.5658 CH2           1 RES     
    2926 CH2         16.3670    37.6556   -30.5822 CH2           1 RES     
    2927 CH2         16.7200    37.0304   -29.2198 CH2           1 RES     
    2928 CH2         15.5556    37.2501   -28.2362 CH2           1 RES     
    2929 CH2         15.9086    36.6250   -26.8738 CH2           1 RES     
    2930 C           14.7971    36.8347   -25.9349 C             1 RES     
    2931 C           19.2930    36.4322   -41.5403 C             1 RES     
    2932 O           19.9406    36.7492   -40.5439 O             1 RES     
    2933 O           19.8842    36.1982   -42.8989 O             1 RES     
    2934 CH2         18.0018    36.0390   -41.2406 CH2           1 RES     
    2935 CH2         18.0407    36.2047   -39.7100 CH2           1 RES     
    2936 CH2         16.7661    35.5978   -39.0948 CH2           1 RES     
    2937 CH2         16.8049    35.7634   -37.5642 CH2           1 RES     
    2938 CH2         15.5303    35.1565   -36.9489 CH2           1 RES     
    2939 CH2         15.5692    35.3221   -35.4184 CH2           1 RES     
    2940 CH2         14.2945    34.7152   -34.8031 CH2           1 RES     
    2941 CH2         14.3334    34.8808   -33.2725 CH2           1 RES     
    2942 CH2         13.0588    34.2739   -32.6572 CH2           1 RES     
    2943 CH2         13.0976    34.4395   -31.1267 CH2           1 RES     
    2944 CH2         11.8230    33.8326   -30.5114 CH2           1 RES     
    2945 CH2         11.8619    33.9982   -28.9808 CH2           1 RES     
    2946 C           10.6452    33.4189   -28.3935 C             1 RES     
    2947 N           40.3948    16.4317   -49.8745 N             1 RES     
    2948 C           39.5508    15.3319   -50.2252 C             1 RES     
    2949 C           41.6902    16.3091   -50.1894 C             1 RES     
    2950 C           39.8906    17.5324   -50.4082 C             1 RES     
    2951 CH2         40.2506    16.6738   -48.5110 CH2           1 RES     
    2952 CH2         40.8447    15.3803   -47.9233 CH2           1 RES     
    2953 P           39.3876    14.8081   -45.9783 P             1 RES     
    2954 O           39.2850    14.8506   -44.3821 O             1 RES     
    2955 O           40.7846    15.4362   -46.4406 O             1 RES     
    2956 O           39.3266    13.2673   -46.4049 O             1 RES     
    2957 O           38.1865    15.7018   -46.5429 O             1 RES     
    2958 CH2         37.9794    14.2613   -43.9903 CH2           1 RES     
    2959 CH2         38.2525    15.7662   -42.3515 CH2           1 RES     
    2960 CH2         37.8443    14.2850   -42.4565 CH2           1 RES     
    2961 C           37.0634    16.5156   -40.7186 C             1 RES     
    2962 O           37.9024    15.8993   -40.0634 O             1 RES     
    2963 O           37.0485    16.5986   -42.2163 O             1 RES     
    2964 CH2         35.9695    16.9010   -39.9662 CH2           1 RES     
    2965 CH2         36.3869    16.3169   -38.6037 CH2           1 RES     
    2966 CH2         35.2057    16.4117   -37.6202 CH2           1 RES     
    2967 CH2         35.6232    15.8276   -36.2577 CH2           1 RES     
    2968 CH2         34.4420    15.9223   -35.2742 CH2           1 RES     
    2969 CH2         34.8594    15.3382   -33.9117 CH2           1 RES     
    2970 CH2         33.6782    15.4329   -32.9282 CH2           1 RES     
    2971 CH2         34.0956    14.8489   -31.5658 CH2           1 RES     
    2972 CH2         32.9144    14.9436   -30.5822 CH2           1 RES     
    2973 CH2         33.3319    14.3595   -29.2198 CH2           1 RES     
    2974 CH2         32.1507    14.4542   -28.2362 CH2           1 RES     
    2975 CH2         32.5681    13.8702   -26.8738 CH2           1 RES     
    2976 C           31.4406    13.9606   -25.9349 C             1 RES     
    2977 C           35.9538    14.0380   -41.5403 C             1 RES     
    2978 O           36.5641    14.4220   -40.5439 O             1 RES     
    2979 O           36.5666    13.8681   -42.8989 O             1 RES     
    2980 CH2         34.7117    13.5099   -41.2406 CH2           1 RES     
    2981 CH2         34.7328    13.6787   -39.7100 CH2           1 RES     
    2982 CH2         33.5298    12.9398   -39.0948 CH2           1 RES     
    2983 CH2         33.5509    13.1086   -37.5642 CH2           1 RES     
    2984 CH2         32.3479    12.3698   -36.9489 CH2           1 RES     
    2985 CH2         32.3690    12.5386   -35.4184 CH2           1 RES     
    2986 CH2         31.1660    11.7997   -34.8031 CH2           1 RES     
    2987 CH2         31.1871    11.9685   -33.2725 CH2           1 RES     
    2988 CH2         29.9841    11.2296   -32.6572 CH2           1 RES     
    2989 CH2         30.0052    11.3984   -31.1267 CH2           1 RES     
    2990 CH2         28.8022    10.6596   -30.5114 CH2           1 RES     
    2991 CH2         28.8233    10.8284   -28.9808 CH2           1 RES     
    2992 C           27.6750    10.1231   -28.3935 C             1 RES     
    2993 N           29.4404    27.3861   -49.8745 N             1 RES     
    2994 C           28.7702    26.1726   -50.2252 C             1 RES     
    2995 C           30.7395    27.4585   -50.1894 C             1 RES     
    2996 C           28.7773    28.3991   -50.4082 C             1 RES     
    2997 CH2         29.2616    27.6040   -48.5110 CH2           1 RES     
    2998 CH2         30.0423    26.4138   -47.9233 CH2           1 RES     
    2999 P           28.6870    25.6303   -45.9783 P             1 RES     
    3000 O           28.5793    25.6569   -44.3821 O             1 RES     
    3001 O           29.9746    26.4601   -46.4406 O             1 RES     
    3002 O           28.8570    24.0976   -46.4049 O             1 RES     
    3003 O           27.3659    26.3344   -46.5429 O             1 RES     
    3004 CH2         27.3764    24.8792   -43.9903 CH2           1 RES     
    3005 CH2         27.4216    26.4080   -42.3515 CH2           1 RES     
    3006 CH2         27.2393    24.8824   -42.4565 CH2           1 RES     
    3007 C           26.1339    26.9713   -40.7186 C             1 RES     
    3008 O           27.0554    26.4873   -40.0634 O             1 RES     
    3009 O           26.1066    27.0511   -42.2163 O             1 RES     
    3010 CH2         24.9946    27.1889   -39.9662 CH2           1 RES     
    3011 CH2         25.4946    26.6738   -38.6037 CH2           1 RES     
    3012 CH2         24.3125    26.5909   -37.6202 CH2           1 RES     
    3013 CH2         24.8126    26.0758   -36.2577 CH2           1 RES     
    3014 CH2         23.6305    25.9929   -35.2742 CH2           1 RES     
    3015 CH2         24.1305    25.4778   -33.9117 CH2           1 RES     
    3016 CH2         22.9484    25.3949   -32.9282 CH2           1 RES     
    3017 CH2         23.4484    24.8798   -31.5658 CH2           1 RES     
    3018 CH2         22.2664    24.7969   -30.5822 CH2           1 RES     
    3019 CH2         22.7664    24.2818   -29.2198 CH2           1 RES     
    3020 CH2         21.5843    24.1989   -28.2362 CH2           1 RES     
    3021 CH2         22.0843    23.6838   -26.8738 CH2           1 RES     
    3022 C           20.9560    23.6047   -25.9349 C             1 RES     
    3023 C           25.4069    24.3557   -41.5403 C             1 RES     
    3024 O           25.9530    24.8266   -40.5439 O             1 RES     
    3025 O           26.0382    24.2793   -42.8989 O             1 RES     
    3026 CH2         24.2577    23.6479   -41.2406 CH2           1 RES     
    3027 CH2         24.2533    23.8180   -39.7100 CH2           1 RES     
    3028 CH2         23.1743    22.9076   -39.0948 CH2           1 RES     
    3029 CH2         23.1699    23.0777   -37.5642 CH2           1 RES     
    3030 CH2         22.0908    22.1674   -36.9489 CH2           1 RES     
    3031 CH2         22.0864    22.3374   -35.4184 CH2           1 RES     
    3032 CH2         21.0074    21.4271   -34.8031 CH2           1 RES     
    3033 CH2         21.0030    21.5971   -33.2725 CH2           1 RES     
    3034 CH2         19.9239    20.6868   -32.6572 CH2           1 RES     
    3035 CH2         19.9195    20.8569   -31.1267 CH2           1 RES     
    3036 CH2         18.8405    19.9465   -30.5114 CH2           1 RES     
    3037 CH2         18.8361    20.1166   -28.9808 CH2           1 RES     
    3038 C           17.8061    19.2476   -28.3935 C             1 RES     
    3039 N           40.3948    -0.0000   -49.8745 N             1 RES     
    3040 C           39.6807    -1.1883   -50.2252 C             1 RES     
    3041 C           41.6958     0.0248   -50.1894 C             1 RES     
    3042 C           39.7692     1.0366   -50.4082 C             1 RES     
    3043 CH2         40.2241     0.2243   -48.5110 CH2           1 RES     
    3044 CH2         40.9608    -0.9937   -47.9233 CH2           1 RES     
    3045 P           39.5778    -1.7271   -45.9783 P             1 RES     
    3046 O           39.4711    -1.6966   -44.3821 O             1 RES     
    3047 O           40.8948    -0.9450   -46.4406 O             1 RES     
    3048 O           39.6916    -3.2650   -46.4049 O             1 RES     
    3049 O           38.2833    -0.9752   -46.5429 O             1 RES     
    3050 CH2         38.2406    -2.4298   -43.9903 CH2           1 RES     
    3051 CH2         38.3416    -0.9037   -42.3515 CH2           1 RES     
    3052 CH2         38.1037    -2.4216   -42.4565 CH2           1 RES     
    3053 C           37.0754    -0.2937   -40.7186 C             1 RES     
    3054 O           37.9786    -0.8111   -40.0634 O             1 RES     
    3055 O           37.0511    -0.2129   -42.2163 O             1 RES     
    3056 CH2         35.9448    -0.0345   -39.9662 CH2           1 RES     
    3057 CH2         36.4257    -0.5676   -38.6037 CH2           1 RES     
    3058 CH2         35.2414    -0.6072   -37.6202 CH2           1 RES     
    3059 CH2         35.7222    -1.1403   -36.2577 CH2           1 RES     
    3060 CH2         34.5379    -1.1798   -35.2742 CH2           1 RES     
    3061 CH2         35.0187    -1.7129   -33.9117 CH2           1 RES     
    3062 CH2         33.8344    -1.7525   -32.9282 CH2           1 RES     
    3063 CH2         34.3153    -2.2856   -31.5658 CH2           1 RES     
    3064 CH2         33.1309    -2.3251   -30.5822 CH2           1 RES     
    3065 CH2         33.6118    -2.8582   -29.2198 CH2           1 RES     
    3066 CH2         32.4275    -2.8978   -28.2362 CH2           1 RES     
    3067 CH2         32.9083    -3.4309   -26.8738 CH2           1 RES     
    3068 C           31.7778    -3.4687   -25.9349 C             1 RES     
    3069 C           36.2533    -2.8809   -41.5403 C             1 RES     
    3070 O           36.8162    -2.4303   -40.5439 O             1 RES     
    3071 O           36.8813    -2.9804   -42.8989 O             1 RES     
    3072 CH2         35.0789    -3.5462   -41.2406 CH2           1 RES     
    3073 CH2         35.0808    -3.3761   -39.7100 CH2           1 RES     
    3074 CH2         33.9691    -4.2464   -39.0948 CH2           1 RES     
    3075 CH2         33.9710    -4.0763   -37.5642 CH2           1 RES     
    3076 CH2         32.8594    -4.9466   -36.9489 CH2           1 RES     
    3077 CH2         32.8612    -4.7764   -35.4184 CH2           1 RES     
    3078 CH2         31.7496    -5.6467   -34.8031 CH2           1 RES     
    3079 CH2         31.7514    -5.4766   -33.2725 CH2           1 RES     
    3080 CH2         30.6398    -6.3469   -32.6572 CH2           1 RES     
    3081 CH2         30.6416    -6.1768   -31.1267 CH2           1 RES     
    3082 CH2         29.5300    -7.0471   -30.5114 CH2           1 RES     
    3083 CH2         29.5318    -6.8770   -28.9808 CH2           1 RES     
    3084 C           28.4708    -7.7077   -28.3935 C             1 RES     
    3085 N           18.4859    16.4317   -49.8745 N             1 RES     
    3086 C           17.6258    15.3444   -50.2252 C             1 RES     
    3087 C           19.7794    16.2900   -50.1894 C             1 RES     
    3088 C           17.9980    17.5397   -50.4082 C             1 RES     
    3089 CH2         18.3453    16.6759   -48.5110 CH2           1 RES     
    3090 CH2         18.9202    15.3738   -47.9233 CH2           1 RES     
    3091 P           17.4548    14.8232   -45.9783 P             1 RES     
    3092 O           17.3529    14.8671   -44.3821 O             1 RES     
    3093 O           18.8610    15.4306   -46.4406 O             1 RES     
    3094 O           17.3712    13.2833   -46.4049 O             1 RES     
    3095 O           16.2670    15.7344   -46.5429 O             1 RES     
    3096 CH2         16.0388    14.2972   -43.9903 CH2           1 RES     
    3097 CH2         16.3340    15.7979   -42.3515 CH2           1 RES     
    3098 CH2         15.9040    14.3228   -42.4565 CH2           1 RES     
    3099 C           15.1561    16.5647   -40.7186 C             1 RES     
    3100 O           15.9859    15.9361   -40.0634 O             1 RES     
    3101 O           15.1424    16.6479   -42.2163 O             1 RES     
    3102 CH2         14.0680    16.9662   -39.9662 CH2           1 RES     
    3103 CH2         14.4768    16.3761   -38.6037 CH2           1 RES     
    3104 CH2         13.2971    16.4882   -37.6202 CH2           1 RES     
    3105 CH2         13.7059    15.8980   -36.2577 CH2           1 RES     
    3106 CH2         12.5262    16.0101   -35.2742 CH2           1 RES     
    3107 CH2         12.9350    15.4200   -33.9117 CH2           1 RES     
    3108 CH2         11.7553    15.5321   -32.9282 CH2           1 RES     
    3109 CH2         12.1641    14.9419   -31.5658 CH2           1 RES     
    3110 CH2         10.9844    15.0541   -30.5822 CH2           1 RES     
    3111 CH2         11.3932    14.4639   -29.2198 CH2           1 RES     
    3112 CH2         10.2135    14.5760   -28.2362 CH2           1 RES     
    3113 CH2         10.6223    13.9858   -26.8738 CH2           1 RES     
    3114 C            9.4962    14.0929   -25.9349 C             1 RES     
    3115 C           14.0101    14.1037   -41.5403 C             1 RES     
    3116 O           14.6260    14.4787   -40.5439 O             1 RES     
    3117 O           14.6203    13.9248   -42.8989 O             1 RES     
    3118 CH2         12.7604    13.5940   -41.2406 CH2           1 RES     
    3119 CH2         12.7839    13.7625   -39.7100 CH2           1 RES     
    3120 CH2         11.5702    13.0414   -39.0948 CH2           1 RES     
    3121 CH2         11.5937    13.2099   -37.5642 CH2           1 RES     
    3122 CH2         10.3800    12.4889   -36.9489 CH2           1 RES     
    3123 CH2         10.4036    12.6573   -35.4184 CH2           1 RES     
    3124 CH2          9.1898    11.9363   -34.8031 CH2           1 RES     
    3125 CH2          9.2134    12.1048   -33.2725 CH2           1 RES     
    3126 CH2          7.9997    11.3837   -32.6572 CH2           1 RES     
    3127 CH2          8.0232    11.5522   -31.1267 CH2           1 RES     
    3128 CH2          6.8095    10.8311   -30.5114 CH2           1 RES     
    3129 CH2          6.8330    10.9996   -28.9808 CH2           1 RES     
    3130 C            5.6745    10.3113   -28.3935 C             1 RES     
    3131 N           13.0087    32.8634   -49.8745 N             1 RES     
    3132 C           12.0865    31.8282   -50.2252 C             1 RES     
    3133 C           14.2916    32.6463   -50.1894 C             1 RES     
    3134 C           12.5863    33.9980   -50.4082 C             1 RES     
    3135 CH2         12.8825    33.1154   -48.5110 CH2           1 RES     
    3136 CH2         13.3804    31.7819   -47.9233 CH2           1 RES     
    3137 P           11.8854    31.3178   -45.9783 P             1 RES     
    3138 O           11.7862    31.3677   -44.3821 O             1 RES     
    3139 O           13.3246    31.8420   -46.4406 O             1 RES     
    3140 O           11.7119    29.7855   -46.4049 O             1 RES     
    3141 O           10.7529    32.2969   -46.5429 O             1 RES     
    3142 CH2         10.4410    30.8755   -43.9903 CH2           1 RES     
    3143 CH2         10.8234    32.3564   -42.3515 CH2           1 RES     
    3144 CH2         10.3080    30.9090   -42.4565 CH2           1 RES     
    3145 C            9.6924    33.1907   -40.7186 C             1 RES     
    3146 O           10.4840    32.5147   -40.0634 O             1 RES     
    3147 O            9.6835    33.2746   -42.2163 O             1 RES     
    3148 CH2          8.6296    33.6551   -39.9662 CH2           1 RES     
    3149 CH2          9.0032    33.0421   -38.6037 CH2           1 RES     
    3150 CH2          7.8321    33.2230   -37.6202 CH2           1 RES     
    3151 CH2          8.2056    32.6099   -36.2577 CH2           1 RES     
    3152 CH2          7.0345    32.7908   -35.2742 CH2           1 RES     
    3153 CH2          7.4081    32.1777   -33.9117 CH2           1 RES     
    3154 CH2          6.2370    32.3586   -32.9282 CH2           1 RES     
    3155 CH2          6.6106    31.7456   -31.5658 CH2           1 RES     
    3156 CH2          5.4395    31.9264   -30.5822 CH2           1 RES     
    3157 CH2          5.8131    31.3134   -29.2198 CH2           1 RES     
    3158 CH2          4.6420    31.4942   -28.2362 CH2           1 RES     
    3159 CH2          5.0156    30.8812   -26.8738 CH2           1 RES     
    3160 C            3.8977    31.0538   -25.9349 C             1 RES     
    3161 C            8.4045    30.8009   -41.5403 C             1 RES     
    3162 O            9.0413    31.1393   -40.5439 O             1 RES     
    3163 O            9.0032    30.5867   -42.8989 O             1 RES     
    3164 CH2          7.1271    30.3651   -41.2406 CH2           1 RES     
    3165 CH2          7.1605    30.5319   -39.7100 CH2           1 RES     
    3166 CH2          5.9067    29.8830   -39.0948 CH2           1 RES     
    3167 CH2          5.9400    30.0498   -37.5642 CH2           1 RES     
    3168 CH2          4.6862    29.4009   -36.9489 CH2           1 RES     
    3169 CH2          4.7196    29.5677   -35.4184 CH2           1 RES     
    3170 CH2          3.4658    28.9188   -34.8031 CH2           1 RES     
    3171 CH2          3.4992    29.0857   -33.2725 CH2           1 RES     
    3172 CH2          2.2454    28.4368   -32.6572 CH2           1 RES     
    3173 CH2          2.2787    28.6036   -31.1267 CH2           1 RES     
    3174 CH2          1.0250    27.9547   -30.5114 CH2           1 RES     
    3175 CH2          1.0583    28.1215   -28.9808 CH2           1 RES     
    3176 C           -0.1385    27.5021   -28.3935 C             1 RES     
    3177 N            7.5315    -0.0000   -49.8745 N             1 RES     
    3178 C            6.5037    -0.9304   -50.2252 C             1 RES     
    3179 C            8.7838    -0.3532   -50.1894 C             1 RES     
    3180 C            7.2331     1.1734   -50.4082 C             1 RES     
    3181 CH2          7.4330     0.2641   -48.5110 CH2           1 RES     
    3182 CH2          7.7852    -1.1151   -47.9233 CH2           1 RES     
    3183 P            6.2491    -1.4163   -45.9783 P             1 RES     
    3184 O            6.1558    -1.3561   -44.3821 O             1 RES     
    3185 O            7.7362    -1.0493   -46.4406 O             1 RES     
    3186 O            5.9124    -2.9212   -46.4049 O             1 RES     
    3187 O            5.2279    -0.3215   -46.5429 O             1 RES     
    3188 CH2          4.7656    -1.7014   -43.9903 CH2           1 RES     
    3189 CH2          5.3045    -0.2700   -42.3515 CH2           1 RES     
    3190 CH2          4.6370    -1.6538   -42.4565 CH2           1 RES     
    3191 C            4.2693     0.6807   -40.7186 C             1 RES     
    3192 O            4.9839    -0.0762   -40.0634 O             1 RES     
    3193 O            4.2695     0.7651   -42.2163 O             1 RES     
    3194 CH2          3.2624     1.2563   -39.9662 CH2           1 RES     
    3195 CH2          3.5681     0.6068   -38.6037 CH2           1 RES     
    3196 CH2          2.4231     0.9121   -37.6202 CH2           1 RES     
    3197 CH2          2.7289     0.2625   -36.2577 CH2           1 RES     
    3198 CH2          1.5839     0.5678   -35.2742 CH2           1 RES     
    3199 CH2          1.8897    -0.0817   -33.9117 CH2           1 RES     
    3200 CH2          0.7447     0.2235   -32.9282 CH2           1 RES     
    3201 CH2          1.0505    -0.4260   -31.5658 CH2           1 RES     
    3202 CH2         -0.0945    -0.1207   -30.5822 CH2           1 RES     
    3203 CH2          0.2112    -0.7703   -29.2198 CH2           1 RES     
    3204 CH2         -0.9337    -0.4650   -28.2362 CH2           1 RES     
    3205 CH2         -0.6280    -1.1145   -26.8738 CH2           1 RES     
    3206 C           -1.7209    -0.8231   -25.9349 C             1 RES     
    3207 C            2.7328    -1.5573   -41.5403 C             1 RES     
    3208 O            3.4022    -1.2892   -40.5439 O             1 RES     
    3209 O            3.3051    -1.8345   -42.8989 O             1 RES     
    3210 CH2          1.4161    -1.8538   -41.2406 CH2           1 RES     
    3211 CH2          1.4671    -1.6915   -39.7100 CH2           1 RES     
    3212 CH2          0.1511    -2.2024   -39.0948 CH2           1 RES     
    3213 CH2          0.2021    -2.0401   -37.5642 CH2           1 RES     
    3214 CH2         -1.1140    -2.5510   -36.9489 CH2           1 RES     
    3215 CH2         -1.0630    -2.3887   -35.4184 CH2           1 RES     
    3216 CH2         -2.3790    -2.8996   -34.8031 CH2           1 RES     
    3217 CH2         -2.3280    -2.7373   -33.2725 CH2           1 RES     
    3218 CH2         -3.6441    -3.2481   -32.6572 CH2           1 RES     
    3219 CH2         -3.5931    -3.0859   -31.1267 CH2           1 RES     
    3220 CH2         -4.9091    -3.5967   -30.5114 CH2           1 RES     
    3221 CH2         -4.8581    -3.4344   -28.9808 CH2           1 RES     
    3222 C           -6.1144    -3.9221   -28.3935 C             1 RES     
    3223 N           34.9176     5.4772   -49.8745 N             1 RES     
    3224 C           34.4150     4.1852   -50.2252 C             1 RES     
    3225 C           36.1956     5.7219   -50.1894 C             1 RES     
    3226 C           34.1256     6.3929   -50.4082 C             1 RES     
    3227 CH2         34.7114     5.6693   -48.5110 CH2           1 RES     
    3228 CH2         35.6436     4.5936   -47.9233 CH2           1 RES     
    3229 P           34.4047     3.6367   -45.9783 P             1 RES     
    3230 O           34.2944     3.6488   -44.3821 O             1 RES     
    3231 O           35.5703     4.6305   -46.4406 O             1 RES     
    3232 O           34.7772     2.1403   -46.4049 O             1 RES     
    3233 O           33.0016     4.1587   -46.5429 O             1 RES     
    3234 CH2         33.2058     2.7178   -43.9903 CH2           1 RES     
    3235 CH2         33.0470     4.2390   -42.3515 CH2           1 RES     
    3236 CH2         33.0694     2.7028   -42.4565 CH2           1 RES     
    3237 C           31.6958     4.6259   -40.7186 C             1 RES     
    3238 O           32.6736     4.2689   -40.0634 O             1 RES     
    3239 O           31.6581     4.7014   -42.2163 O             1 RES     
    3240 CH2         30.5377     4.6899   -39.9662 CH2           1 RES     
    3241 CH2         31.1018     4.2459   -38.6037 CH2           1 RES     
    3242 CH2         29.9413     4.0064   -37.6202 CH2           1 RES     
    3243 CH2         30.5054     3.5624   -36.2577 CH2           1 RES     
    3244 CH2         29.3449     3.3229   -35.2742 CH2           1 RES     
    3245 CH2         29.9091     2.8790   -33.9117 CH2           1 RES     
    3246 CH2         28.7485     2.6395   -32.9282 CH2           1 RES     
    3247 CH2         29.3127     2.1955   -31.5658 CH2           1 RES     
    3248 CH2         28.1521     1.9560   -30.5822 CH2           1 RES     
    3249 CH2         28.7163     1.5120   -29.2198 CH2           1 RES     
    3250 CH2         27.5558     1.2725   -28.2362 CH2           1 RES     
    3251 CH2         28.1199     0.8285   -26.8738 CH2           1 RES     
    3252 C           27.0121     0.5999   -25.9349 C             1 RES     
    3253 C           31.3235     1.9368   -41.5403 C             1 RES     
    3254 O           31.8020     2.4762   -40.5439 O             1 RES     
    3255 O           31.9593     1.9451   -42.8989 O             1 RES     
    3256 CH2         30.2787     1.0823   -41.2406 CH2           1 RES     
    3257 CH2         30.2517     1.2503   -39.7100 CH2           1 RES     
    3258 CH2         29.3035     0.2044   -39.0948 CH2           1 RES     
    3259 CH2         29.2765     0.3723   -37.5642 CH2           1 RES     
    3260 CH2         28.3282    -0.6736   -36.9489 CH2           1 RES     
    3261 CH2         28.3012    -0.5056   -35.4184 CH2           1 RES     
    3262 CH2         27.3530    -1.5515   -34.8031 CH2           1 RES     
    3263 CH2         27.3260    -1.3835   -33.2725 CH2           1 RES     
    3264 CH2         26.3778    -2.4294   -32.6572 CH2           1 RES     
    3265 CH2         26.3508    -2.2614   -31.1267 CH2           1 RES     
    3266 CH2         25.4025    -3.3073   -30.5114 CH2           1 RES     
    3267 CH2         25.3755    -3.1394   -28.9808 CH2           1 RES     
    3268 C           24.4704    -4.1377   -28.3935 C             1 RES     
    3269 N           45.8721    16.4317   -49.8745 N             1 RES     
    3270 C           45.0883    15.2882   -50.2252 C             1 RES     
    3271 C           47.1721    16.3787   -50.1894 C             1 RES     
    3272 C           45.3095    17.5037   -50.4082 C             1 RES     
    3273 CH2         45.7150    16.6657   -48.5110 CH2           1 RES     
    3274 CH2         46.3776    15.4059   -47.9233 CH2           1 RES     
    3275 P           44.9533    14.7564   -45.9783 P             1 RES     
    3276 O           44.8486    14.7933   -44.3821 O             1 RES     
    3277 O           46.3147    15.4585   -46.4406 O             1 RES     
    3278 O           44.9751    13.2145   -46.4049 O             1 RES     
    3279 O           43.7060    15.5844   -46.5429 O             1 RES     
    3280 CH2         43.5765    14.1349   -43.9903 CH2           1 RES     
    3281 CH2         43.7685    15.6523   -42.3515 CH2           1 RES     
    3282 CH2         43.4404    14.1513   -42.4565 CH2           1 RES     
    3283 C           42.5410    16.3368   -40.7186 C             1 RES     
    3284 O           43.4117    15.7664   -40.0634 O             1 RES     
    3285 O           42.5216    16.4189   -42.2163 O             1 RES     
    3286 CH2         41.4279    16.6630   -39.9662 CH2           1 RES     
    3287 CH2         41.8761    16.1022   -38.6037 CH2           1 RES     
    3288 CH2         40.6915    16.1334   -37.6202 CH2           1 RES     
    3289 CH2         41.1397    15.5725   -36.2577 CH2           1 RES     
    3290 CH2         39.9551    15.6038   -35.2742 CH2           1 RES     
    3291 CH2         40.4032    15.0429   -33.9117 CH2           1 RES     
    3292 CH2         39.2187    15.0742   -32.9282 CH2           1 RES     
    3293 CH2         39.6668    14.5133   -31.5658 CH2           1 RES     
    3294 CH2         38.4822    14.5445   -30.5822 CH2           1 RES     
    3295 CH2         38.9304    13.9837   -29.2198 CH2           1 RES     
    3296 CH2         37.7458    14.0149   -28.2362 CH2           1 RES     
    3297 CH2         38.1940    13.4541   -26.8738 CH2           1 RES     
    3298 C           37.0633    13.4839   -25.9349 C             1 RES     
    3299 C           41.5658    13.8033   -41.5403 C             1 RES     
    3300 O           42.1547    14.2194   -40.5439 O             1 RES     
    3301 O           42.1868    13.6665   -42.8989 O             1 RES     
    3302 CH2         40.3538    13.2093   -41.2406 CH2           1 RES     
    3303 CH2         40.3658    13.3790   -39.7100 CH2           1 RES     
    3304 CH2         39.2042    12.5767   -39.0948 CH2           1 RES     
    3305 CH2         39.2162    12.7464   -37.5642 CH2           1 RES     
    3306 CH2         38.0546    11.9440   -36.9489 CH2           1 RES     
    3307 CH2         38.0666    12.1137   -35.4184 CH2           1 RES     
    3308 CH2         36.9050    11.3114   -34.8031 CH2           1 RES     
    3309 CH2         36.9169    11.4811   -33.2725 CH2           1 RES     
    3310 CH2         35.7553    10.6788   -32.6572 CH2           1 RES     
    3311 CH2         35.7673    10.8485   -31.1267 CH2           1 RES     
    3312 CH2         34.6057    10.0461   -30.5114 CH2           1 RES     
    3313 CH2         34.6177    10.2158   -28.9808 CH2           1 RES     
    3314 C           33.5089     9.4500   -28.3935 C             1 RES     
    3315 N           45.8721    21.9089   -49.8745 N             1 RES     
    3316 C           45.0501    20.7925   -50.2252 C             1 RES     
    3317 C           47.1696    21.8121   -50.1894 C             1 RES     
    3318 C           45.3460    22.9994   -50.4082 C             1 RES     
    3319 CH2         45.7230    22.1481   -48.5110 CH2           1 RES     
    3320 CH2         46.3427    20.8667   -47.9233 CH2           1 RES     
    3321 P           44.8973    20.2656   -45.9783 P             1 RES     
    3322 O           44.7939    20.3060   -44.3821 O             1 RES     
    3323 O           46.2816    20.9214   -46.4406 O             1 RES     
    3324 O           44.8670    18.7238   -46.4049 O             1 RES     
    3325 O           43.6786    21.1352   -46.5429 O             1 RES     
    3326 CH2         43.5003    19.6909   -43.9903 CH2           1 RES     
    3327 CH2         43.7434    21.2009   -42.3515 CH2           1 RES     
    3328 CH2         43.3648    19.7119   -42.4565 CH2           1 RES     
    3329 C           42.5397    21.9265   -40.7186 C             1 RES     
    3330 O           43.3907    21.3270   -40.0634 O             1 RES     
    3331 O           42.5230    22.0092   -42.2163 O             1 RES     
    3332 CH2         41.4383    22.2901   -39.9662 CH2           1 RES     
    3333 CH2         41.8672    21.7144   -38.6037 CH2           1 RES     
    3334 CH2         40.6844    21.7856   -37.6202 CH2           1 RES     
    3335 CH2         41.1134    21.2100   -36.2577 CH2           1 RES     
    3336 CH2         39.9305    21.2812   -35.2742 CH2           1 RES     
    3337 CH2         40.3595    20.7055   -33.9117 CH2           1 RES     
    3338 CH2         39.1766    20.7767   -32.9282 CH2           1 RES     
    3339 CH2         39.6056    20.2011   -31.5658 CH2           1 RES     
    3340 CH2         38.4228    20.2723   -30.5822 CH2           1 RES     
    3341 CH2         38.8517    19.6966   -29.2198 CH2           1 RES     
    3342 CH2         37.6689    19.7678   -28.2362 CH2           1 RES     
    3343 CH2         38.0979    19.1922   -26.8738 CH2           1 RES     
    3344 C           36.9688    19.2601   -25.9349 C             1 RES     
    3345 C           41.4795    19.4273   -41.5403 C             1 RES     
    3346 O           42.0821    19.8234   -40.5439 O             1 RES     
    3347 O           42.0955    19.2697   -42.8989 O             1 RES     
    3348 CH2         40.2482    18.8746   -41.2406 CH2           1 RES     
    3349 CH2         40.2659    19.0438   -39.7100 CH2           1 RES     
    3350 CH2         39.0779    18.2812   -39.0948 CH2           1 RES     
    3351 CH2         39.0956    18.4503   -37.5642 CH2           1 RES     
    3352 CH2         37.9076    17.6877   -36.9489 CH2           1 RES     
    3353 CH2         37.9253    17.8569   -35.4184 CH2           1 RES     
    3354 CH2         36.7373    17.0942   -34.8031 CH2           1 RES     
    3355 CH2         36.7550    17.2634   -33.2725 CH2           1 RES     
    3356 CH2         35.5669    16.5007   -32.6572 CH2           1 RES     
    3357 CH2         35.5846    16.6699   -31.1267 CH2           1 RES     
    3358 CH2         34.3966    15.9073   -30.5114 CH2           1 RES     
    3359 CH2         34.4143    16.0765   -28.9808 CH2           1 RES     
    3360 C           33.2803    15.3485   -28.3935 C             1 RES     
    3361 N           34.9176    38.3406   -49.8745 N             1 RES     
    3362 C           33.8964    37.4030   -50.2252 C             1 RES     
    3363 C           36.1724    37.9962   -50.1894 C             1 RES     
    3364 C           34.6110    39.5118   -50.4082 C             1 RES     
    3365 CH2         34.8173    38.6040   -48.5110 CH2           1 RES     
    3366 CH2         35.1792    37.2273   -47.9233 CH2           1 RES     
    3367 P           33.6452    36.9153   -45.9783 P             1 RES     
    3368 O           33.5515    36.9748   -44.3821 O             1 RES     
    3369 O           35.1297    37.2928   -46.4406 O             1 RES     
    3370 O           33.3191    35.4081   -46.4049 O             1 RES     
    3371 O           32.6164    38.0029   -46.5429 O             1 RES     
    3372 CH2         32.1638    36.6198   -43.9903 CH2           1 RES     
    3373 CH2         32.6926    38.0550   -42.3515 CH2           1 RES     
    3374 CH2         32.0348    36.6665   -42.4565 CH2           1 RES     
    3375 C           31.6507    38.9984   -40.7186 C             1 RES     
    3376 O           32.3706    38.2465   -40.0634 O             1 RES     
    3377 O           31.6503    39.0827   -42.2163 O             1 RES     
    3378 CH2         30.6398    39.5669   -39.9662 CH2           1 RES     
    3379 CH2         30.9501    38.9195   -38.6037 CH2           1 RES     
    3380 CH2         29.8030    39.2167   -37.6202 CH2           1 RES     
    3381 CH2         30.1133    38.5694   -36.2577 CH2           1 RES     
    3382 CH2         28.9662    38.8666   -35.2742 CH2           1 RES     
    3383 CH2         29.2765    38.2192   -33.9117 CH2           1 RES     
    3384 CH2         28.1294    38.5164   -32.9282 CH2           1 RES     
    3385 CH2         28.4397    37.8690   -31.5658 CH2           1 RES     
    3386 CH2         27.2926    38.1663   -30.5822 CH2           1 RES     
    3387 CH2         27.6030    37.5189   -29.2198 CH2           1 RES     
    3388 CH2         26.4559    37.8161   -28.2362 CH2           1 RES     
    3389 CH2         26.7662    37.1687   -26.8738 CH2           1 RES     
    3390 C           25.6712    37.4525   -25.9349 C             1 RES     
    3391 C           30.1300    36.7495   -41.5403 C             1 RES     
    3392 O           30.7975    37.0224   -40.5439 O             1 RES     
    3393 O           30.7042    36.4764   -42.8989 O             1 RES     
    3394 CH2         28.8154    36.4438   -41.2406 CH2           1 RES     
    3395 CH2         28.8653    36.6065   -39.7100 CH2           1 RES     
    3396 CH2         27.5528    36.0864   -39.0948 CH2           1 RES     
    3397 CH2         27.6027    36.2490   -37.5642 CH2           1 RES     
    3398 CH2         26.2903    35.7289   -36.9489 CH2           1 RES     
    3399 CH2         26.3402    35.8915   -35.4184 CH2           1 RES     
    3400 CH2         25.0277    35.3714   -34.8031 CH2           1 RES     
    3401 CH2         25.0776    35.5341   -33.2725 CH2           1 RES     
    3402 CH2         23.7651    35.0140   -32.6572 CH2           1 RES     
    3403 CH2         23.8150    35.1766   -31.1267 CH2           1 RES     
    3404 CH2         22.5026    34.6565   -30.5114 CH2           1 RES     
    3405 CH2         22.5525    34.8191   -28.9808 CH2           1 RES     
    3406 C           21.2997    34.3227   -28.3935 C             1 RES     
    3407 N            7.5315    38.3406   -49.8745 N             1 RES     
    3408 C            6.8100    37.1568   -50.2252 C             1 RES     
    3409 C            8.8325    38.3573   -50.1894 C             1 RES     
    3410 C            6.9123    39.3810   -50.4082 C             1 RES     
    3411 CH2          7.3621    38.5659   -48.5110 CH2           1 RES     
    3412 CH2          8.0912    37.3433   -47.9233 CH2           1 RES     
    3413 P            6.7037    36.6186   -45.9783 P             1 RES     
    3414 O            6.5972    36.6498   -44.3821 O             1 RES     
    3415 O            8.0256    37.3925   -46.4406 O             1 RES     
    3416 O            6.8080    35.0800   -46.4049 O             1 RES     
    3417 O            5.4139    37.3785   -46.5429 O             1 RES     
    3418 CH2          5.3622    35.9242   -43.9903 CH2           1 RES     
    3419 CH2          5.4727    37.4497   -42.3515 CH2           1 RES     
    3420 CH2          5.2253    35.9333   -42.4565 CH2           1 RES     
    3421 C            4.2102    38.0675   -40.7186 C             1 RES     
    3422 O            5.1103    37.5446   -40.0634 O             1 RES     
    3423 O            4.1865    38.1485   -42.2163 O             1 RES     
    3424 CH2          3.0813    38.3337   -39.9662 CH2           1 RES     
    3425 CH2          3.5589    37.7976   -38.6037 CH2           1 RES     
    3426 CH2          2.3743    37.7654   -37.6202 CH2           1 RES     
    3427 CH2          2.8519    37.2294   -36.2577 CH2           1 RES     
    3428 CH2          1.6673    37.1972   -35.2742 CH2           1 RES     
    3429 CH2          2.1448    36.6611   -33.9117 CH2           1 RES     
    3430 CH2          0.9603    36.6289   -32.9282 CH2           1 RES     
    3431 CH2          1.4378    36.0928   -31.5658 CH2           1 RES     
    3432 CH2          0.2533    36.0606   -30.5822 CH2           1 RES     
    3433 CH2          0.7308    35.5246   -29.2198 CH2           1 RES     
    3434 CH2         -0.4537    35.4923   -28.2362 CH2           1 RES     
    3435 CH2          0.0238    34.9563   -26.8738 CH2           1 RES     
    3436 C           -1.1069    34.9255   -25.9349 C             1 RES     
    3437 C            3.3721    35.4854   -41.5403 C             1 RES     
    3438 O            3.9378    35.9325   -40.5439 O             1 RES     
    3439 O            3.9995    35.3821   -42.8989 O             1 RES     
    3440 CH2          2.1936    34.8275   -41.2406 CH2           1 RES     
    3441 CH2          2.1965    34.9976   -39.7100 CH2           1 RES     
    3442 CH2          1.0795    34.1342   -39.0948 CH2           1 RES     
    3443 CH2          1.0824    34.3043   -37.5642 CH2           1 RES     
    3444 CH2         -0.0346    33.4409   -36.9489 CH2           1 RES     
    3445 CH2         -0.0317    33.6110   -35.4184 CH2           1 RES     
    3446 CH2         -1.1487    32.7477   -34.8031 CH2           1 RES     
    3447 CH2         -1.1458    32.9178   -33.2725 CH2           1 RES     
    3448 CH2         -2.2628    32.0544   -32.6572 CH2           1 RES     
    3449 CH2         -2.2599    32.2245   -31.1267 CH2           1 RES     
    3450 CH2         -3.3769    31.3612   -30.5114 CH2           1 RES     
    3451 CH2         -3.3740    31.5313   -28.9808 CH2           1 RES     
    3452 C           -4.4403    30.7071   -28.3935 C             1 RES     
    3453 N           23.9632    -0.0000   -49.8745 N             1 RES     
    3454 C           23.0284    -1.0238   -50.2252 C             1 RES     
    3455 C           25.2433    -0.2327   -50.1894 C             1 RES     
    3456 C           23.5547     1.1397   -50.4082 C             1 RES     
    3457 CH2         23.8401     0.2536   -48.5110 CH2           1 RES     
    3458 CH2         24.3216    -1.0859   -47.9233 CH2           1 RES     
    3459 P           22.8210    -1.5317   -45.9783 P             1 RES     
    3460 O           22.7225    -1.4807   -44.3821 O             1 RES     
    3461 O           24.2666    -1.0251   -46.4406 O             1 RES     
    3462 O           22.6288    -3.0617   -46.4049 O             1 RES     
    3463 O           21.7006    -0.5388   -46.5429 O             1 RES     
    3464 CH2         21.3714    -1.9563   -43.9903 CH2           1 RES     
    3465 CH2         21.7719    -0.4803   -42.3515 CH2           1 RES     
    3466 CH2         21.2388    -1.9212   -42.4565 CH2           1 RES     
    3467 C           20.6511     0.3678   -40.7186 C             1 RES     
    3468 O           21.4343    -0.3178   -40.0634 O             1 RES     
    3469 O           20.6432     0.4518   -42.2163 O             1 RES     
    3470 CH2         19.5940     0.8452   -39.9662 CH2           1 RES     
    3471 CH2         19.9601     0.2277   -38.6037 CH2           1 RES     
    3472 CH2         18.7913     0.4228   -37.6202 CH2           1 RES     
    3473 CH2         19.1574    -0.1948   -36.2577 CH2           1 RES     
    3474 CH2         17.9885     0.0004   -35.2742 CH2           1 RES     
    3475 CH2         18.3546    -0.6172   -33.9117 CH2           1 RES     
    3476 CH2         17.1858    -0.4220   -32.9282 CH2           1 RES     
    3477 CH2         17.5519    -1.0396   -31.5658 CH2           1 RES     
    3478 CH2         16.3831    -0.8444   -30.5822 CH2           1 RES     
    3479 CH2         16.7492    -1.4620   -29.2198 CH2           1 RES     
    3480 CH2         15.5803    -1.2668   -28.2362 CH2           1 RES     
    3481 CH2         15.9464    -1.8844   -26.8738 CH2           1 RES     
    3482 C           14.8307    -1.6981   -25.9349 C             1 RES     
    3483 C           19.3341    -2.0060   -41.5403 C             1 RES     
    3484 O           19.9750    -1.6755   -40.5439 O             1 RES     
    3485 O           19.9301    -2.2276   -42.8989 O             1 RES     
    3486 CH2         18.0515    -2.4262   -41.2406 CH2           1 RES     
    3487 CH2         18.0869    -2.2598   -39.7100 CH2           1 RES     
    3488 CH2         16.8253    -2.8934   -39.0948 CH2           1 RES     
    3489 CH2         16.8606    -2.7270   -37.5642 CH2           1 RES     
    3490 CH2         15.5990    -3.3605   -36.9489 CH2           1 RES     
    3491 CH2         15.6344    -3.1941   -35.4184 CH2           1 RES     
    3492 CH2         14.3728    -3.8277   -34.8031 CH2           1 RES     
    3493 CH2         14.4082    -3.6613   -33.2725 CH2           1 RES     
    3494 CH2         13.1466    -4.2948   -32.6572 CH2           1 RES     
    3495 CH2         13.1820    -4.1284   -31.1267 CH2           1 RES     
    3496 CH2         11.9203    -4.7619   -30.5114 CH2           1 RES     
    3497 CH2         11.9557    -4.5956   -28.9808 CH2           1 RES     
    3498 C           10.7515    -5.2003   -28.3935 C             1 RES     
    3499 N           45.8721     5.4772   -49.8745 N             1 RES     
    3500 C           45.1235     4.3104   -50.2252 C             1 RES     
    3501 C           47.1731     5.4639   -50.1894 C             1 RES     
    3502 C           45.2771     6.5317   -50.4082 C             1 RES     
    3503 CH2         45.7080     5.7064   -48.5110 CH2           1 RES     
    3504 CH2         46.4086     4.4673   -47.9233 CH2           1 RES     
    3505 P           45.0048     3.7748   -45.9783 P             1 RES     
    3506 O           44.8990     3.8084   -44.3821 O             1 RES     
    3507 O           46.3441     4.5180   -46.4406 O             1 RES     
    3508 O           45.0735     2.2342   -46.4049 O             1 RES     
    3509 O           43.7328     4.5643   -46.5429 O             1 RES     
    3510 CH2         43.6476     3.1116   -43.9903 CH2           1 RES     
    3511 CH2         43.7932     4.6341   -42.3515 CH2           1 RES     
    3512 CH2         43.5110     3.1238   -42.4565 CH2           1 RES     
    3513 C           42.5454     5.2809   -40.7186 C             1 RES     
    3514 O           43.4331     4.7373   -40.0634 O             1 RES     
    3515 O           42.5235     5.3623   -42.2163 O             1 RES     
    3516 CH2         41.4229     5.5730   -39.9662 CH2           1 RES     
    3517 CH2         41.8880     5.0261   -38.6037 CH2           1 RES     
    3518 CH2         40.7030     5.0212   -37.6202 CH2           1 RES     
    3519 CH2         41.1680     4.4743   -36.2577 CH2           1 RES     
    3520 CH2         39.9831     4.4694   -35.2742 CH2           1 RES     
    3521 CH2         40.4481     3.9225   -33.9117 CH2           1 RES     
    3522 CH2         39.2631     3.9176   -32.9282 CH2           1 RES     
    3523 CH2         39.7282     3.3707   -31.5658 CH2           1 RES     
    3524 CH2         38.5432     3.3658   -30.5822 CH2           1 RES     
    3525 CH2         39.0082     2.8189   -29.2198 CH2           1 RES     
    3526 CH2         37.8232     2.8140   -28.2362 CH2           1 RES     
    3527 CH2         38.2883     2.2671   -26.8738 CH2           1 RES     
    3528 C           37.1572     2.2624   -25.9349 C             1 RES     
    3529 C           41.6479     2.7188   -41.5403 C             1 RES     
    3530 O           42.2238     3.1527   -40.5439 O             1 RES     
    3531 O           42.2727     2.6010   -42.8989 O             1 RES     
    3532 CH2         40.4546     2.0882   -41.2406 CH2           1 RES     
    3533 CH2         40.4614     2.2582   -39.7100 CH2           1 RES     
    3534 CH2         39.3248     1.4208   -39.0948 CH2           1 RES     
    3535 CH2         39.3316     1.5908   -37.5642 CH2           1 RES     
    3536 CH2         38.1950     0.7535   -36.9489 CH2           1 RES     
    3537 CH2         38.2018     0.9235   -35.4184 CH2           1 RES     
    3538 CH2         37.0651     0.0861   -34.8031 CH2           1 RES     
    3539 CH2         37.0719     0.2561   -33.2725 CH2           1 RES     
    3540 CH2         35.9353    -0.5813   -32.6572 CH2           1 RES     
    3541 CH2         35.9421    -0.4113   -31.1267 CH2           1 RES     
    3542 CH2         34.8055    -1.2486   -30.5114 CH2           1 RES     
    3543 CH2         34.8123    -1.0787   -28.9808 CH2           1 RES     
    3544 C           33.7274    -1.8779   -28.3935 C             1 RES     
    3545 N           34.9176    32.8634   -49.8745 N             1 RES     
    3546 C           34.3878    31.5823   -50.2252 C             1 RES     
    3547 C           36.2004    33.0810   -50.1894 C             1 RES     
    3548 C           34.1451    33.7956   -50.4082 C             1 RES     
    3549 CH2         34.7155    33.0598   -48.5110 CH2           1 RES     
    3550 CH2         35.6248    31.9646   -47.9233 CH2           1 RES     
    3551 P           34.3659    31.0341   -45.9783 P             1 RES     
    3552 O           34.2559    31.0485   -44.3821 O             1 RES     
    3553 O           35.5523    32.0031   -46.4406 O             1 RES     
    3554 O           34.7067    29.5301   -46.4049 O             1 RES     
    3555 O           32.9741    31.5856   -46.5429 O             1 RES     
    3556 CH2         33.1478    30.1408   -43.9903 CH2           1 RES     
    3557 CH2         33.0212    31.6650   -42.3515 CH2           1 RES     
    3558 CH2         33.0112    30.1286   -42.4565 CH2           1 RES     
    3559 C           31.6785    32.0803   -40.7186 C             1 RES     
    3560 O           32.6485    31.7027   -40.0634 O             1 RES     
    3561 O           31.6425    32.1566   -42.2163 O             1 RES     
    3562 CH2         30.5220    32.1688   -39.9662 CH2           1 RES     
    3563 CH2         31.0766    31.7130   -38.6037 CH2           1 RES     
    3564 CH2         29.9113    31.4981   -37.6202 CH2           1 RES     
    3565 CH2         30.4659    31.0423   -36.2577 CH2           1 RES     
    3566 CH2         29.3006    30.8274   -35.2742 CH2           1 RES     
    3567 CH2         29.8553    30.3715   -33.9117 CH2           1 RES     
    3568 CH2         28.6899    30.1566   -32.9282 CH2           1 RES     
    3569 CH2         29.2446    29.7008   -31.5658 CH2           1 RES     
    3570 CH2         28.0792    29.4859   -30.5822 CH2           1 RES     
    3571 CH2         28.6339    29.0301   -29.2198 CH2           1 RES     
    3572 CH2         27.4685    28.8152   -28.2362 CH2           1 RES     
    3573 CH2         28.0232    28.3594   -26.8738 CH2           1 RES     
    3574 C           26.9108    28.1543   -25.9349 C             1 RES     
    3575 C           31.2495    29.3997   -41.5403 C             1 RES     
    3576 O           31.7393    29.9288   -40.5439 O             1 RES     
    3577 O           31.8853    29.3945   -42.8989 O             1 RES     
    3578 CH2         30.1869    28.5675   -41.2406 CH2           1 RES     
    3579 CH2         30.1634    28.7360   -39.7100 CH2           1 RES     
    3580 CH2         29.1933    27.7104   -39.0948 CH2           1 RES     
    3581 CH2         29.1698    27.8789   -37.5642 CH2           1 RES     
    3582 CH2         28.1997    26.8532   -36.9489 CH2           1 RES     
    3583 CH2         28.1763    27.0217   -35.4184 CH2           1 RES     
    3584 CH2         27.2061    25.9961   -34.8031 CH2           1 RES     
    3585 CH2         27.1827    26.1646   -33.2725 CH2           1 RES     
    3586 CH2         26.2125    25.1390   -32.6572 CH2           1 RES     
    3587 CH2         26.1891    25.3075   -31.1267 CH2           1 RES     
    3588 CH2         25.2190    24.2819   -30.5114 CH2           1 RES     
    3589 CH2         25.1955    24.4504   -28.9808 CH2           1 RES     
    3590 C           24.2695    23.4714   -28.3935 C             1 RES     
    3591 N           40.3948    21.9089   -49.8745 N             1 RES     
    3592 C           39.3806    20.9638   -50.2252 C             1 RES     
    3593 C           41.6521    21.5738   -50.1894 C             1 RES     
    3594 C           40.0795    23.0778   -50.4082 C             1 RES     
    3595 CH2         40.2926    22.1716   -48.5110 CH2           1 RES     
    3596 CH2         40.6646    20.7976   -47.9233 CH2           1 RES     
    3597 P           39.1330    20.4742   -45.9783 P             1 RES     
    3598 O           39.0389    20.5331   -44.3821 O             1 RES     
    3599 O           40.6147    20.8627   -46.4406 O             1 RES     
    3600 O           38.8181    18.9647   -46.4049 O             1 RES     
    3601 O           38.0962    21.5542   -46.5429 O             1 RES     
    3602 CH2         37.6538    20.1678   -43.9903 CH2           1 RES     
    3603 CH2         38.1720    21.6068   -42.3515 CH2           1 RES     
    3604 CH2         37.5245    20.2135   -42.4565 CH2           1 RES     
    3605 C           37.1232    22.5425   -40.7186 C             1 RES     
    3606 O           37.8486    21.7960   -40.0634 O             1 RES     
    3607 O           37.1221    22.6268   -42.2163 O             1 RES     
    3608 CH2         36.1080    23.1035   -39.9662 CH2           1 RES     
    3609 CH2         36.4231    22.4584   -38.6037 CH2           1 RES     
    3610 CH2         35.2739    22.7472   -37.6202 CH2           1 RES     
    3611 CH2         35.5890    22.1021   -36.2577 CH2           1 RES     
    3612 CH2         34.4397    22.3908   -35.2742 CH2           1 RES     
    3613 CH2         34.7548    21.7458   -33.9117 CH2           1 RES     
    3614 CH2         33.6055    22.0345   -32.9282 CH2           1 RES     
    3615 CH2         33.9206    21.3894   -31.5658 CH2           1 RES     
    3616 CH2         32.7714    21.6782   -30.5822 CH2           1 RES     
    3617 CH2         33.0865    21.0331   -29.2198 CH2           1 RES     
    3618 CH2         31.9372    21.3218   -28.2362 CH2           1 RES     
    3619 CH2         32.2523    20.6768   -26.8738 CH2           1 RES     
    3620 C           31.1553    20.9524   -25.9349 C             1 RES     
    3621 C           35.6191    20.2825   -41.5403 C             1 RES     
    3622 O           36.2846    20.5603   -40.5439 O             1 RES     
    3623 O           36.1954    20.0136   -42.8989 O             1 RES     
    3624 CH2         34.3068    19.9670   -41.2406 CH2           1 RES     
    3625 CH2         34.3555    20.1300   -39.7100 CH2           1 RES     
    3626 CH2         33.0470    19.6002   -39.0948 CH2           1 RES     
    3627 CH2         33.0956    19.7632   -37.5642 CH2           1 RES     
    3628 CH2         31.7871    19.2334   -36.9489 CH2           1 RES     
    3629 CH2         31.8358    19.3964   -35.4184 CH2           1 RES     
    3630 CH2         30.5272    18.8666   -34.8031 CH2           1 RES     
    3631 CH2         30.5759    19.0296   -33.2725 CH2           1 RES     
    3632 CH2         29.2673    18.4998   -32.6572 CH2           1 RES     
    3633 CH2         29.3160    18.6628   -31.1267 CH2           1 RES     
    3634 CH2         28.0074    18.1331   -30.5114 CH2           1 RES     
    3635 CH2         28.0561    18.2961   -28.9808 CH2           1 RES     
    3636 C           26.8070    17.7903   -28.3935 C             1 RES     
    3637 N           23.9632    21.9089   -49.8745 N             1 RES     
    3638 C           23.1186    20.8095   -50.2252 C             1 RES     
    3639 C           25.2585    21.7857   -50.1894 C             1 RES     
    3640 C           23.4595    23.0099   -50.4082 C             1 RES     
    3641 CH2         23.8190    22.1511   -48.5110 CH2           1 RES     
    3642 CH2         24.4125    20.8573   -47.9233 CH2           1 RES     
    3643 P           22.9551    20.2859   -45.9783 P             1 RES     
    3644 O           22.8525    20.3283   -44.3821 O             1 RES     
    3645 O           24.3525    20.9132   -46.4406 O             1 RES     
    3646 O           22.8934    18.7450   -46.4049 O             1 RES     
    3647 O           21.7544    21.1801   -46.5429 O             1 RES     
    3648 CH2         21.5467    19.7398   -43.9903 CH2           1 RES     
    3649 CH2         21.8205    21.2445   -42.3515 CH2           1 RES     
    3650 CH2         21.4116    19.7635   -42.4565 CH2           1 RES     
    3651 C           20.6318    21.9945   -40.7186 C             1 RES     
    3652 O           21.4704    21.3778   -40.0634 O             1 RES     
    3653 O           20.6169    22.0775   -42.2163 O             1 RES     
    3654 CH2         19.5381    22.3804   -39.9662 CH2           1 RES     
    3655 CH2         19.9552    21.7962   -38.6037 CH2           1 RES     
    3656 CH2         18.7741    21.8915   -37.6202 CH2           1 RES     
    3657 CH2         19.1912    21.3072   -36.2577 CH2           1 RES     
    3658 CH2         18.0101    21.4025   -35.2742 CH2           1 RES     
    3659 CH2         18.4272    20.8182   -33.9117 CH2           1 RES     
    3660 CH2         17.2460    20.9135   -32.9282 CH2           1 RES     
    3661 CH2         17.6632    20.3292   -31.5658 CH2           1 RES     
    3662 CH2         16.4820    20.4245   -30.5822 CH2           1 RES     
    3663 CH2         16.8992    19.8402   -29.2198 CH2           1 RES     
    3664 CH2         15.7180    19.9355   -28.2362 CH2           1 RES     
    3665 CH2         16.1352    19.3513   -26.8738 CH2           1 RES     
    3666 C           15.0077    19.4422   -25.9349 C             1 RES     
    3667 C           19.5209    19.5174   -41.5403 C             1 RES     
    3668 O           20.1315    19.9011   -40.5439 O             1 RES     
    3669 O           20.1336    19.3472   -42.8989 O             1 RES     
    3670 CH2         18.2786    18.9899   -41.2406 CH2           1 RES     
    3671 CH2         18.2997    19.1587   -39.7100 CH2           1 RES     
    3672 CH2         17.0964    18.4205   -39.0948 CH2           1 RES     
    3673 CH2         17.1176    18.5893   -37.5642 CH2           1 RES     
    3674 CH2         15.9142    17.8510   -36.9489 CH2           1 RES     
    3675 CH2         15.9354    18.0198   -35.4184 CH2           1 RES     
    3676 CH2         14.7321    17.2815   -34.8031 CH2           1 RES     
    3677 CH2         14.7532    17.4503   -33.2725 CH2           1 RES     
    3678 CH2         13.5499    16.7120   -32.6572 CH2           1 RES     
    3679 CH2         13.5710    16.8808   -31.1267 CH2           1 RES     
    3680 CH2         12.3677    16.1425   -30.5114 CH2           1 RES     
    3681 CH2         12.3888    16.3113   -28.9808 CH2           1 RES     
    3682 C           11.2402    15.6066   -28.3935 C             1 RES     
    3683 N           34.9176    27.3861   -49.8745 N             1 RES     
    3684 C           34.0588    26.2979   -50.2252 C             1 RES     
    3685 C           36.2112    27.2460   -50.1894 C             1 RES     
    3686 C           34.4284    28.4936   -50.4082 C             1 RES     
    3687 CH2         34.7766    27.6302   -48.5110 CH2           1 RES     
    3688 CH2         35.3531    26.3287   -47.9233 CH2           1 RES     
    3689 P           33.8884    25.7764   -45.9783 P             1 RES     
    3690 O           33.7864    25.8202   -44.3821 O             1 RES     
    3691 O           35.2938    26.3855   -46.4406 O             1 RES     
    3692 O           33.8065    24.2365   -46.4049 O             1 RES     
    3693 O           32.6995    26.6863   -46.5429 O             1 RES     
    3694 CH2         32.4729    25.2488   -43.9903 CH2           1 RES     
    3695 CH2         32.7664    26.7498   -42.3515 CH2           1 RES     
    3696 CH2         32.3382    25.2743   -42.4565 CH2           1 RES     
    3697 C           31.5877    27.5153   -40.7186 C             1 RES     
    3698 O           32.4181    26.8877   -40.0634 O             1 RES     
    3699 O           31.5738    27.5985   -42.2163 O             1 RES     
    3700 CH2         30.4991    27.9155   -39.9662 CH2           1 RES     
    3701 CH2         30.9085    27.3258   -38.6037 CH2           1 RES     
    3702 CH2         29.7287    27.4366   -37.6202 CH2           1 RES     
    3703 CH2         30.1382    26.8469   -36.2577 CH2           1 RES     
    3704 CH2         28.9584    26.9577   -35.2742 CH2           1 RES     
    3705 CH2         29.3678    26.3680   -33.9117 CH2           1 RES     
    3706 CH2         28.1880    26.4787   -32.9282 CH2           1 RES     
    3707 CH2         28.5975    25.8890   -31.5658 CH2           1 RES     
    3708 CH2         27.4177    25.9998   -30.5822 CH2           1 RES     
    3709 CH2         27.8272    25.4101   -29.2198 CH2           1 RES     
    3710 CH2         26.6474    25.5208   -28.2362 CH2           1 RES     
    3711 CH2         27.0568    24.9312   -26.8738 CH2           1 RES     
    3712 C           25.9306    25.0369   -25.9349 C             1 RES     
    3713 C           30.4445    25.0530   -41.5403 C             1 RES     
    3714 O           31.0600    25.4287   -40.5439 O             1 RES     
    3715 O           31.0549    24.8748   -42.8989 O             1 RES     
    3716 CH2         29.1953    24.5418   -41.2406 CH2           1 RES     
    3717 CH2         29.2187    24.7103   -39.7100 CH2           1 RES     
    3718 CH2         28.0058    23.9879   -39.0948 CH2           1 RES     
    3719 CH2         28.0292    24.1564   -37.5642 CH2           1 RES     
    3720 CH2         26.8163    23.4339   -36.9489 CH2           1 RES     
    3721 CH2         26.8396    23.6024   -35.4184 CH2           1 RES     
    3722 CH2         25.6267    22.8799   -34.8031 CH2           1 RES     
    3723 CH2         25.6501    23.0484   -33.2725 CH2           1 RES     
    3724 CH2         24.4372    22.3260   -32.6572 CH2           1 RES     
    3725 CH2         24.4606    22.4945   -31.1267 CH2           1 RES     
    3726 CH2         23.2477    21.7720   -30.5114 CH2           1 RES     
    3727 CH2         23.2710    21.9405   -28.9808 CH2           1 RES     
    3728 C           22.1133    21.2509   -28.3935 C             1 RES     
    3729 N           23.9632    16.4317   -49.8745 N             1 RES     
    3730 C           23.0021    15.4326   -50.2252 C             1 RES     
    3731 C           25.2368    16.1657   -50.1894 C             1 RES     
    3732 C           23.5845    17.5816   -50.4082 C             1 RES     
    3733 CH2         23.8467    16.6884   -48.5110 CH2           1 RES     
    3734 CH2         24.2932    15.3368   -47.9233 CH2           1 RES     
    3735 P           22.7815    14.9303   -45.9783 P             1 RES     
    3736 O           22.6843    14.9838   -44.3821 O             1 RES     
    3737 O           24.2398    15.3990   -46.4406 O             1 RES     
    3738 O           22.5495    13.4057   -46.4049 O             1 RES     
    3739 O           21.6873    15.9520   -46.5429 O             1 RES     
    3740 CH2         21.3213    14.5435   -43.9903 CH2           1 RES     
    3741 CH2         21.7601    16.0087   -42.3515 CH2           1 RES     
    3742 CH2         21.1897    14.5821   -42.4565 CH2           1 RES     
    3743 C           20.6618    16.8857   -40.7186 C             1 RES     
    3744 O           21.4269    16.1799   -40.0634 O             1 RES     
    3745 O           20.6561    16.9698   -42.2163 O             1 RES     
    3746 CH2         19.6175    17.3904   -39.9662 CH2           1 RES     
    3747 CH2         19.9674    16.7635   -38.6037 CH2           1 RES     
    3748 CH2         18.8041    16.9891   -37.6202 CH2           1 RES     
    3749 CH2         19.1539    16.3622   -36.2577 CH2           1 RES     
    3750 CH2         17.9906    16.5877   -35.2742 CH2           1 RES     
    3751 CH2         18.3404    15.9608   -33.9117 CH2           1 RES     
    3752 CH2         17.1771    16.1863   -32.9282 CH2           1 RES     
    3753 CH2         17.5270    15.5595   -31.5658 CH2           1 RES     
    3754 CH2         16.3637    15.7850   -30.5822 CH2           1 RES     
    3755 CH2         16.7135    15.1581   -29.2198 CH2           1 RES     
    3756 CH2         15.5502    15.3836   -28.2362 CH2           1 RES     
    3757 CH2         15.9001    14.7567   -26.8738 CH2           1 RES     
    3758 C           14.7896    14.9720   -25.9349 C             1 RES     
    3759 C           19.2834    14.5469   -41.5403 C             1 RES     
    3760 O           19.9327    14.8606   -40.5439 O             1 RES     
    3761 O           19.8735    14.3099   -42.8989 O             1 RES     
    3762 CH2         17.9903    14.1603   -41.2406 CH2           1 RES     
    3763 CH2         18.0300    14.3257   -39.7100 CH2           1 RES     
    3764 CH2         16.7523    13.7252   -39.0948 CH2           1 RES     
    3765 CH2         16.7920    13.8906   -37.5642 CH2           1 RES     
    3766 CH2         15.5143    13.2902   -36.9489 CH2           1 RES     
    3767 CH2         15.5540    13.4556   -35.4184 CH2           1 RES     
    3768 CH2         14.2764    12.8551   -34.8031 CH2           1 RES     
    3769 CH2         14.3161    13.0205   -33.2725 CH2           1 RES     
    3770 CH2         13.0384    12.4201   -32.6572 CH2           1 RES     
    3771 CH2         13.0781    12.5855   -31.1267 CH2           1 RES     
    3772 CH2         11.8004    11.9850   -30.5114 CH2           1 RES     
    3773 CH2         11.8401    12.1504   -28.9808 CH2           1 RES     
    3774 C           10.6205    11.5773   -28.3935 C             1 RES     
    3775 N           40.3948    10.9545   -49.8745 N             1 RES     
    3776 C           39.7175     9.7449   -50.2252 C             1 RES     
    3777 C           41.6944    11.0191   -50.1894 C             1 RES     
    3778 C           39.7378    11.9714   -50.4082 C             1 RES     
    3779 CH2         40.2173    11.1734   -48.5110 CH2           1 RES     
    3780 CH2         40.9909     9.9785   -47.9233 CH2           1 RES     
    3781 P           39.6311     9.2031   -45.9783 P             1 RES     
    3782 O           39.5235     9.2304   -44.3821 O             1 RES     
    3783 O           40.9235    10.0252   -46.4406 O             1 RES     
    3784 O           39.7920     7.6694   -46.4049 O             1 RES     
    3785 O           38.3141     9.9151   -46.5429 O             1 RES     
    3786 CH2         38.3160     8.4598   -43.9903 CH2           1 RES     
    3787 CH2         38.3702     9.9883   -42.3515 CH2           1 RES     
    3788 CH2         38.1789     8.4639   -42.4565 CH2           1 RES     
    3789 C           37.0859    10.5592   -40.7186 C             1 RES     
    3790 O           38.0046    10.0698   -40.0634 O             1 RES     
    3791 O           37.0592    10.6392   -42.2163 O             1 RES     
    3792 CH2         35.9480    10.7836   -39.9662 CH2           1 RES     
    3793 CH2         36.4449    10.2655   -38.6037 CH2           1 RES     
    3794 CH2         35.2624    10.1897   -37.6202 CH2           1 RES     
    3795 CH2         35.7593     9.6716   -36.2577 CH2           1 RES     
    3796 CH2         34.5768     9.5958   -35.2742 CH2           1 RES     
    3797 CH2         35.0737     9.0777   -33.9117 CH2           1 RES     
    3798 CH2         33.8912     9.0018   -32.9282 CH2           1 RES     
    3799 CH2         34.3881     8.4837   -31.5658 CH2           1 RES     
    3800 CH2         33.2056     8.4079   -30.5822 CH2           1 RES     
    3801 CH2         33.7025     7.8898   -29.2198 CH2           1 RES     
    3802 CH2         32.5200     7.8140   -28.2362 CH2           1 RES     
    3803 CH2         33.0169     7.2959   -26.8738 CH2           1 RES     
    3804 C           31.8881     7.2235   -25.9349 C             1 RES     
    3805 C           36.3434     7.9480   -41.5403 C             1 RES     
    3806 O           36.8923     8.4156   -40.5439 O             1 RES     
    3807 O           36.9742     7.8678   -42.8989 O             1 RES     
    3808 CH2         35.1901     7.2471   -41.2406 CH2           1 RES     
    3809 CH2         35.1867     7.4171   -39.7100 CH2           1 RES     
    3810 CH2         34.1022     6.5132   -39.0948 CH2           1 RES     
    3811 CH2         34.0988     6.6833   -37.5642 CH2           1 RES     
    3812 CH2         33.0144     5.7794   -36.9489 CH2           1 RES     
    3813 CH2         33.0110     5.9495   -35.4184 CH2           1 RES     
    3814 CH2         31.9266     5.0456   -34.8031 CH2           1 RES     
    3815 CH2         31.9232     5.2156   -33.2725 CH2           1 RES     
    3816 CH2         30.8388     4.3117   -32.6572 CH2           1 RES     
    3817 CH2         30.8354     4.4818   -31.1267 CH2           1 RES     
    3818 CH2         29.7510     3.5779   -30.5114 CH2           1 RES     
    3819 CH2         29.7476     3.7480   -28.9808 CH2           1 RES     
    3820 C           28.7124     2.8851   -28.3935 C             1 RES     
    3821 N           18.4859    27.3861   -49.8745 N             1 RES     
    3822 C           17.9183    26.1213   -50.2252 C             1 RES     
    3823 C           19.7747    27.5656   -50.1894 C             1 RES     
    3824 C           17.7414    28.3409   -50.4082 C             1 RES     
    3825 CH2         18.2897    27.5885   -48.5110 CH2           1 RES     
    3826 CH2         19.1661    26.4668   -47.9233 CH2           1 RES     
    3827 P           17.8802    25.5741   -45.9783 P             1 RES     
    3828 O           17.7706    25.5917   -44.3821 O             1 RES     
    3829 O           19.0948    26.5074   -46.4406 O             1 RES     
    3830 O           18.1762    24.0607   -46.4049 O             1 RES     
    3831 O           16.5054    26.1666   -46.5429 O             1 RES     
    3832 CH2         16.6361    24.7173   -43.9903 CH2           1 RES     
    3833 CH2         16.5548    26.2446   -42.3515 CH2           1 RES     
    3834 CH2         16.4992    24.7091   -42.4565 CH2           1 RES     
    3835 C           15.2250    26.6995   -40.7186 C             1 RES     
    3836 O           16.1834    26.2933   -40.0634 O             1 RES     
    3837 O           15.1913    26.7769   -42.2163 O             1 RES     
    3838 CH2         14.0716    26.8223   -39.9662 CH2           1 RES     
    3839 CH2         14.6125    26.3503   -38.6037 CH2           1 RES     
    3840 CH2         13.4413    26.1700   -37.6202 CH2           1 RES     
    3841 CH2         13.9822    25.6980   -36.2577 CH2           1 RES     
    3842 CH2         12.8110    25.5177   -35.2742 CH2           1 RES     
    3843 CH2         13.3518    25.0457   -33.9117 CH2           1 RES     
    3844 CH2         12.1806    24.8654   -32.9282 CH2           1 RES     
    3845 CH2         12.7215    24.3934   -31.5658 CH2           1 RES     
    3846 CH2         11.5503    24.2132   -30.5822 CH2           1 RES     
    3847 CH2         12.0912    23.7411   -29.2198 CH2           1 RES     
    3848 CH2         10.9200    23.5609   -28.2362 CH2           1 RES     
    3849 CH2         11.4608    23.0888   -26.8738 CH2           1 RES     
    3850 C           10.3429    22.9168   -25.9349 C             1 RES     
    3851 C           14.7166    24.0328   -41.5403 C             1 RES     
    3852 O           15.2219    24.5472   -40.5439 O             1 RES     
    3853 O           15.3520    24.0088   -42.8989 O             1 RES     
    3854 CH2         13.6298    23.2326   -41.2406 CH2           1 RES     
    3855 CH2         13.6113    23.4017   -39.7100 CH2           1 RES     
    3856 CH2         12.6112    22.4053   -39.0948 CH2           1 RES     
    3857 CH2         12.5927    22.5744   -37.5642 CH2           1 RES     
    3858 CH2         11.5926    21.5781   -36.9489 CH2           1 RES     
    3859 CH2         11.5742    21.7472   -35.4184 CH2           1 RES     
    3860 CH2         10.5740    20.7508   -34.8031 CH2           1 RES     
    3861 CH2         10.5556    20.9199   -33.2725 CH2           1 RES     
    3862 CH2          9.5554    19.9236   -32.6572 CH2           1 RES     
    3863 CH2          9.5370    20.0927   -31.1267 CH2           1 RES     
    3864 CH2          8.5368    19.0963   -30.5114 CH2           1 RES     
    3865 CH2          8.5184    19.2654   -28.9808 CH2           1 RES     
    3866 C            7.5637    18.3143   -28.3935 C             1 RES     
    3867 N           40.3948     5.4772   -49.8745 N             1 RES     
    3868 C           39.7283     4.2616   -50.2252 C             1 RES     
    3869 C           41.6938     5.5535   -50.1894 C             1 RES     
    3870 C           39.7287     6.4882   -50.4082 C             1 RES     
    3871 CH2         40.2153     5.6946   -48.5110 CH2           1 RES     
    3872 CH2         40.9996     4.5067   -47.9233 CH2           1 RES     
    3873 P           39.6468     3.7191   -45.9783 P             1 RES     
    3874 O           39.5390     3.7454   -44.3821 O             1 RES     
    3875 O           40.9318     4.5528   -46.4406 O             1 RES     
    3876 O           39.8214     2.1870   -46.4049 O             1 RES     
    3877 O           38.3235     4.4193   -46.5429 O             1 RES     
    3878 CH2         38.3384     2.9641   -43.9903 CH2           1 RES     
    3879 CH2         38.3790     4.4930   -42.3515 CH2           1 RES     
    3880 CH2         38.2013     2.9669   -42.4565 CH2           1 RES     
    3881 C           37.0896     5.0524   -40.7186 C             1 RES     
    3882 O           38.0126     4.5712   -40.0634 O             1 RES     
    3883 O           37.0621     5.1322   -42.2163 O             1 RES     
    3884 CH2         35.9497     5.2666   -39.9662 CH2           1 RES     
    3885 CH2         36.4512     4.7530   -38.6037 CH2           1 RES     
    3886 CH2         35.2694     4.6666   -37.6202 CH2           1 RES     
    3887 CH2         35.7710     4.1529   -36.2577 CH2           1 RES     
    3888 CH2         34.5892     4.0665   -35.2742 CH2           1 RES     
    3889 CH2         35.0907     3.5529   -33.9117 CH2           1 RES     
    3890 CH2         33.9089     3.4665   -32.9282 CH2           1 RES     
    3891 CH2         34.4105     2.9529   -31.5658 CH2           1 RES     
    3892 CH2         33.2286     2.8664   -30.5822 CH2           1 RES     
    3893 CH2         33.7302     2.3528   -29.2198 CH2           1 RES     
    3894 CH2         32.5484     2.2664   -28.2362 CH2           1 RES     
    3895 CH2         33.0499     1.7528   -26.8738 CH2           1 RES     
    3896 C           31.9218     1.6703   -25.9349 C             1 RES     
    3897 C           36.3705     2.4346   -41.5403 C             1 RES     
    3898 O           36.9152     2.9072   -40.5439 O             1 RES     
    3899 O           37.0020     2.3601   -42.8989 O             1 RES     
    3900 CH2         35.2234     1.7234   -41.2406 CH2           1 RES     
    3901 CH2         35.2185     1.8935   -39.7100 CH2           1 RES     
    3902 CH2         34.1422     0.9799   -39.0948 CH2           1 RES     
    3903 CH2         34.1373     1.1499   -37.5642 CH2           1 RES     
    3904 CH2         33.0610     0.2363   -36.9489 CH2           1 RES     
    3905 CH2         33.0561     0.4064   -35.4184 CH2           1 RES     
    3906 CH2         31.9798    -0.5072   -34.8031 CH2           1 RES     
    3907 CH2         31.9749    -0.3371   -33.2725 CH2           1 RES     
    3908 CH2         30.8986    -1.2507   -32.6572 CH2           1 RES     
    3909 CH2         30.8937    -1.0807   -31.1267 CH2           1 RES     
    3910 CH2         29.8174    -1.9943   -30.5114 CH2           1 RES     
    3911 CH2         29.8125    -1.8242   -28.9808 CH2           1 RES     
    3912 C           28.7851    -2.6963   -28.3935 C             1 RES     
    3913 N           18.4859    32.8634   -49.8745 N             1 RES     
    3914 C           17.8418    31.6358   -50.2252 C             1 RES     
    3915 C           19.7832    32.9634   -50.1894 C             1 RES     
    3916 C           17.8014    33.8620   -50.4082 C             1 RES     
    3917 CH2         18.3025    33.0774   -48.5110 CH2           1 RES     
    3918 CH2         19.1084    31.9040   -47.9233 CH2           1 RES     
    3919 P           17.7701    31.0919   -45.9783 P             1 RES     
    3920 O           17.6619    31.1162   -44.3821 O             1 RES     
    3921 O           19.0397    31.9489   -46.4406 O             1 RES     
    3922 O           17.9727    29.5632   -46.4049 O             1 RES     
    3923 O           16.4343    31.7677   -46.5429 O             1 RES     
    3924 CH2         16.4758    30.3131   -43.9903 CH2           1 RES     
    3925 CH2         16.4884    31.8424   -42.3515 CH2           1 RES     
    3926 CH2         16.3387    30.3133   -42.4565 CH2           1 RES     
    3927 C           15.1890    32.3782   -40.7186 C             1 RES     
    3928 O           16.1207    31.9139   -40.0634 O             1 RES     
    3929 O           15.1601    32.4574   -42.2163 O             1 RES     
    3930 CH2         14.0454    32.5715   -39.9662 CH2           1 RES     
    3931 CH2         14.5562    32.0671   -38.6037 CH2           1 RES     
    3932 CH2         13.3762    31.9591   -37.6202 CH2           1 RES     
    3933 CH2         13.8871    31.4548   -36.2577 CH2           1 RES     
    3934 CH2         12.7070    31.3468   -35.2742 CH2           1 RES     
    3935 CH2         13.2179    30.8424   -33.9117 CH2           1 RES     
    3936 CH2         12.0378    30.7344   -32.9282 CH2           1 RES     
    3937 CH2         12.5487    30.2300   -31.5658 CH2           1 RES     
    3938 CH2         11.3687    30.1220   -30.5822 CH2           1 RES     
    3939 CH2         11.8795    29.6176   -29.2198 CH2           1 RES     
    3940 CH2         10.6995    29.5096   -28.2362 CH2           1 RES     
    3941 CH2         11.2104    29.0052   -26.8738 CH2           1 RES     
    3942 C           10.0839    28.9021   -25.9349 C             1 RES     
    3943 C           14.5179    29.7477   -41.5403 C             1 RES     
    3944 O           15.0538    30.2301   -40.5439 O             1 RES     
    3945 O           15.1506    29.6847   -42.8989 O             1 RES     
    3946 CH2         13.3840    29.0156   -41.2406 CH2           1 RES     
    3947 CH2         13.3760    29.1856   -39.7100 CH2           1 RES     
    3948 CH2         12.3166    28.2524   -39.0948 CH2           1 RES     
    3949 CH2         12.3086    28.4224   -37.5642 CH2           1 RES     
    3950 CH2         11.2492    27.4893   -36.9489 CH2           1 RES     
    3951 CH2         11.2411    27.6592   -35.4184 CH2           1 RES     
    3952 CH2         10.1817    26.7261   -34.8031 CH2           1 RES     
    3953 CH2         10.1737    26.8960   -33.2725 CH2           1 RES     
    3954 CH2          9.1143    25.9629   -32.6572 CH2           1 RES     
    3955 CH2          9.1063    26.1328   -31.1267 CH2           1 RES     
    3956 CH2          8.0469    25.1997   -30.5114 CH2           1 RES     
    3957 CH2          8.0388    25.3696   -28.9808 CH2           1 RES     
    3958 C            7.0276    24.4790   -28.3935 C             1 RES     
    3959 N           23.9632     5.4772   -49.8745 N             1 RES     
    3960 C           22.9485     4.5326   -50.2252 C             1 RES     
    3961 C           25.2203     5.1415   -50.1894 C             1 RES     
    3962 C           23.6484     6.6463   -50.4082 C             1 RES     
    3963 CH2         23.8610     5.7400   -48.5110 CH2           1 RES     
    3964 CH2         24.2324     4.3658   -47.9233 CH2           1 RES     
    3965 P           22.7006     4.0432   -45.9783 P             1 RES     
    3966 O           22.6065     4.1021   -44.3821 O             1 RES     
    3967 O           24.1825     4.4309   -46.4406 O             1 RES     
    3968 O           22.3849     2.5338   -46.4049 O             1 RES     
    3969 O           21.6643     5.1237   -46.5429 O             1 RES     
    3970 CH2         21.2213     3.7375   -43.9903 CH2           1 RES     
    3971 CH2         21.7401     5.1763   -42.3515 CH2           1 RES     
    3972 CH2         21.0920     3.7833   -42.4565 CH2           1 RES     
    3973 C           20.6918     6.1125   -40.7186 C             1 RES     
    3974 O           21.4169     5.3656   -40.0634 O             1 RES     
    3975 O           20.6908     6.1968   -42.2163 O             1 RES     
    3976 CH2         19.6770     6.6740   -39.9662 CH2           1 RES     
    3977 CH2         19.9917     6.0288   -38.6037 CH2           1 RES     
    3978 CH2         18.8426     6.3181   -37.6202 CH2           1 RES     
    3979 CH2         19.1574     5.6729   -36.2577 CH2           1 RES     
    3980 CH2         18.0083     5.9622   -35.2742 CH2           1 RES     
    3981 CH2         18.3230     5.3169   -33.9117 CH2           1 RES     
    3982 CH2         17.1739     5.6062   -32.9282 CH2           1 RES     
    3983 CH2         17.4887     4.9610   -31.5658 CH2           1 RES     
    3984 CH2         16.3396     5.2503   -30.5822 CH2           1 RES     
    3985 CH2         16.6544     4.6051   -29.2198 CH2           1 RES     
    3986 CH2         15.5052     4.8944   -28.2362 CH2           1 RES     
    3987 CH2         15.8200     4.2492   -26.8738 CH2           1 RES     
    3988 C           14.7231     4.5253   -25.9349 C             1 RES     
    3989 C           19.1867     3.8532   -41.5403 C             1 RES     
    3990 O           19.8522     4.1307   -40.5439 O             1 RES     
    3991 O           19.7627     3.5840   -42.8989 O             1 RES     
    3992 CH2         17.8742     3.5384   -41.2406 CH2           1 RES     
    3993 CH2         17.9230     3.7014   -39.7100 CH2           1 RES     
    3994 CH2         16.6141     3.1722   -39.0948 CH2           1 RES     
    3995 CH2         16.6629     3.3352   -37.5642 CH2           1 RES     
    3996 CH2         15.3541     2.8061   -36.9489 CH2           1 RES     
    3997 CH2         15.4028     2.9691   -35.4184 CH2           1 RES     
    3998 CH2         14.0940     2.4399   -34.8031 CH2           1 RES     
    3999 CH2         14.1427     2.6029   -33.2725 CH2           1 RES     
    4000 CH2         12.8339     2.0738   -32.6572 CH2           1 RES     
    4001 CH2         12.8827     2.2367   -31.1267 CH2           1 RES     
    4002 CH2         11.5738     1.7076   -30.5114 CH2           1 RES     
    4003 CH2         11.6226     1.8706   -28.9808 CH2           1 RES     
    4004 C           10.3733     1.3655   -28.3935 C             1 RES     
    4005 N           40.3948    27.3861   -49.8745 N             1 RES     
    4006 C           39.5074    26.3210   -50.2252 C             1 RES     
    4007 C           41.6842    27.2117   -50.1894 C             1 RES     
    4008 C           39.9351    28.5062   -50.4082 C             1 RES     
    4009 CH2         40.2604    27.6339   -48.5110 CH2           1 RES     
    4010 CH2         40.8022    26.3175   -47.9233 CH2           1 RES     
    4011 P           39.3233    25.8043   -45.9783 P             1 RES     
    4012 O           39.2225    25.8508   -44.3821 O             1 RES     
    4013 O           40.7444    26.3758   -46.4406 O             1 RES     
    4014 O           39.2006    24.2671   -46.4049 O             1 RES     
    4015 O           38.1590    26.7453   -46.5429 O             1 RES     
    4016 CH2         37.8944    25.3143   -43.9903 CH2           1 RES     
    4017 CH2         38.2276    26.8071   -42.3515 CH2           1 RES     
    4018 CH2         37.7603    25.3434   -42.4565 CH2           1 RES     
    4019 C           37.0695    27.6035   -40.7186 C             1 RES     
    4020 O           37.8830    26.9541   -40.0634 O             1 RES     
    4021 O           37.0578    27.6871   -42.2163 O             1 RES     
    4022 CH2         35.9919    28.0325   -39.9662 CH2           1 RES     
    4023 CH2         36.3856    27.4321   -38.6037 CH2           1 RES     
    4024 CH2         35.2091    27.5741   -37.6202 CH2           1 RES     
    4025 CH2         35.6028    26.9738   -36.2577 CH2           1 RES     
    4026 CH2         34.4263    27.1158   -35.2742 CH2           1 RES     
    4027 CH2         34.8200    26.5155   -33.9117 CH2           1 RES     
    4028 CH2         33.6436    26.6574   -32.9282 CH2           1 RES     
    4029 CH2         34.0373    26.0571   -31.5658 CH2           1 RES     
    4030 CH2         32.8608    26.1991   -30.5822 CH2           1 RES     
    4031 CH2         33.2545    25.5988   -29.2198 CH2           1 RES     
    4032 CH2         32.0780    25.7407   -28.2362 CH2           1 RES     
    4033 CH2         32.4717    25.1404   -26.8738 CH2           1 RES     
    4034 C           31.3487    25.2759   -25.9349 C             1 RES     
    4035 C           35.8614    25.1724   -41.5403 C             1 RES     
    4036 O           36.4867    25.5316   -40.5439 O             1 RES     
    4037 O           36.4669    24.9781   -42.8989 O             1 RES     
    4038 CH2         34.5992    24.6945   -41.2406 CH2           1 RES     
    4039 CH2         34.6270    24.8623   -39.7100 CH2           1 RES     
    4040 CH2         33.3954    24.1723   -39.0948 CH2           1 RES     
    4041 CH2         33.4232    24.3401   -37.5642 CH2           1 RES     
    4042 CH2         32.1916    23.6500   -36.9489 CH2           1 RES     
    4043 CH2         32.2194    23.8179   -35.4184 CH2           1 RES     
    4044 CH2         30.9878    23.1278   -34.8031 CH2           1 RES     
    4045 CH2         31.0156    23.2956   -33.2725 CH2           1 RES     
    4046 CH2         29.7840    22.6056   -32.6572 CH2           1 RES     
    4047 CH2         29.8118    22.7734   -31.1267 CH2           1 RES     
    4048 CH2         28.5802    22.0834   -30.5114 CH2           1 RES     
    4049 CH2         28.6080    22.2512   -28.9808 CH2           1 RES     
    4050 C           27.4324    21.5925   -28.3935 C             1 RES     
    4051 N            7.5315    21.9089   -49.8745 N             1 RES     
    4052 C            6.5201    20.9607   -50.2252 C             1 RES     
    4053 C            8.7898    21.5776   -50.1894 C             1 RES     
    4054 C            7.2126    23.0769   -50.4082 C             1 RES     
    4055 CH2          7.4284    22.1713   -48.5110 CH2           1 RES     
    4056 CH2          7.8046    20.7984   -47.9233 CH2           1 RES     
    4057 P            6.2740    20.4704   -45.9783 P             1 RES     
    4058 O            6.1797    20.5290   -44.3821 O             1 RES     
    4059 O            7.7545    20.8634   -46.4406 O             1 RES     
    4060 O            5.9636    18.9599   -46.4049 O             1 RES     
    4061 O            5.2339    21.5472   -46.5429 O             1 RES     
    4062 CH2          4.7957    20.1595   -43.9903 CH2           1 RES     
    4063 CH2          5.3095    21.6001   -42.3515 CH2           1 RES     
    4064 CH2          4.6663    20.2048   -42.4565 CH2           1 RES     
    4065 C            4.2579    22.5326   -40.7186 C             1 RES     
    4066 O            4.9856    21.7883   -40.0634 O             1 RES     
    4067 O            4.2566    22.6169   -42.2163 O             1 RES     
    4068 CH2          3.2411    23.0905   -39.9662 CH2           1 RES     
    4069 CH2          3.5581    22.4464   -38.6037 CH2           1 RES     
    4070 CH2          2.4080    22.7317   -37.6202 CH2           1 RES     
    4071 CH2          2.7251    22.0876   -36.2577 CH2           1 RES     
    4072 CH2          1.5749    22.3728   -35.2742 CH2           1 RES     
    4073 CH2          1.8920    21.7287   -33.9117 CH2           1 RES     
    4074 CH2          0.7418    22.0139   -32.9282 CH2           1 RES     
    4075 CH2          1.0589    21.3698   -31.5658 CH2           1 RES     
    4076 CH2         -0.0913    21.6551   -30.5822 CH2           1 RES     
    4077 CH2          0.2258    21.0110   -29.2198 CH2           1 RES     
    4078 CH2         -0.9243    21.2962   -28.2362 CH2           1 RES     
    4079 CH2         -0.6073    20.6521   -26.8738 CH2           1 RES     
    4080 C           -1.7051    20.9244   -25.9349 C             1 RES     
    4081 C            2.7607    20.2680   -41.5403 C             1 RES     
    4082 O            3.4253    20.5478   -40.5439 O             1 RES     
    4083 O            3.3378    20.0009   -42.8989 O             1 RES     
    4084 CH2          1.4494    19.9486   -41.2406 CH2           1 RES     
    4085 CH2          1.4976    20.1118   -39.7100 CH2           1 RES     
    4086 CH2          0.1906    19.5780   -39.0948 CH2           1 RES     
    4087 CH2          0.2388    19.7411   -37.5642 CH2           1 RES     
    4088 CH2         -1.0681    19.2074   -36.9489 CH2           1 RES     
    4089 CH2         -1.0200    19.3705   -35.4184 CH2           1 RES     
    4090 CH2         -2.3269    18.8368   -34.8031 CH2           1 RES     
    4091 CH2         -2.2787    18.9999   -33.2725 CH2           1 RES     
    4092 CH2         -3.5857    18.4662   -32.6572 CH2           1 RES     
    4093 CH2         -3.5375    18.6293   -31.1267 CH2           1 RES     
    4094 CH2         -4.8445    18.0956   -30.5114 CH2           1 RES     
    4095 CH2         -4.7963    18.2587   -28.9808 CH2           1 RES     
    4096 C           -6.0438    17.7492   -28.3935 C             1 RES     
    4097 C           29.1725    37.9292   -46.7467 C             1 RES     
    4098 O           29.4404    38.3406   -47.8745 O             1 RES     
    4099 O           29.4538    36.5384   -46.2605 O             1 RES     
    4100 CH2         28.8377    38.9437   -45.8690 CH2           1 RES     
    4101 CH2         28.5674    38.1020   -44.6080 CH2           1 RES     
    4102 CH2         27.9391    38.9929   -43.5203 CH2           1 RES     
    4103 CH2         27.6689    38.1513   -42.2593 CH2           1 RES     
    4104 CH2         27.0406    39.0421   -41.1715 CH2           1 RES     
    4105 CH2         26.7703    38.2005   -39.9105 CH2           1 RES     
    4106 CH2         26.1420    39.0914   -38.8228 CH2           1 RES     
    4107 CH2         25.8717    38.2497   -37.5617 CH2           1 RES     
    4108 CH2         25.2434    39.1406   -36.4740 CH2           1 RES     
    4109 CH2         24.9731    38.2989   -35.2130 CH2           1 RES     
    4110 CH2         24.3448    39.1898   -34.1253 CH2           1 RES     
    4111 CH2         24.0745    38.3482   -32.8642 CH2           1 RES     
    4112 CH2         23.4462    39.2390   -31.7765 CH2           1 RES     
    4113 CH2         23.1760    38.3974   -30.5155 CH2           1 RES     
    4114 CH2         22.5477    39.2883   -29.4278 CH2           1 RES     
    4115 C           22.2897    38.4849   -28.2240 C             1 RES     
    4116 C           25.4773    32.5382   -25.7583 C             1 RES     
    4117 CH2         29.6926    35.6704   -45.1238 CH2           1 RES     
    4118 CH2         28.9135    36.1955   -43.9036 CH2           1 RES     
    4119 CH2         29.1671    35.2736   -42.6963 CH2           1 RES     
    4120 CH2         28.3881    35.7987   -41.4760 CH2           1 RES     
    4121 CH2         28.6416    34.8769   -40.2687 CH2           1 RES     
    4122 CH2         27.8626    35.4020   -39.0485 CH2           1 RES     
    4123 CH2         28.1162    34.4801   -37.8412 CH2           1 RES     
    4124 CH2         27.3372    35.0052   -36.6209 CH2           1 RES     
    4125 CH2         27.5907    34.0834   -35.4136 CH2           1 RES     
    4126 CH2         26.8117    34.6084   -34.1934 CH2           1 RES     
    4127 CH2         27.0653    33.6866   -32.9861 CH2           1 RES     
    4128 CH2         26.2862    34.2117   -31.7658 CH2           1 RES     
    4129 CH2         26.5398    33.2899   -30.5585 CH2           1 RES     
    4130 CH2         25.7608    33.8149   -29.3383 CH2           1 RES     
    4131 CH2         26.0143    32.8931   -28.1310 CH2           1 RES     
    4132 CH2         25.2353    33.4182   -26.9107 CH2           1 RES     
    4133 C           12.6699     5.1220   -46.7467 C             1 RES     
    4134 O           13.0087     5.4772   -47.8745 O             1 RES     
    4135 O           12.6912     3.7032   -46.2605 O             1 RES     
    4136 CH2         12.5270     6.1807   -45.8690 CH2           1 RES     
    4137 CH2         12.1068     5.4030   -44.6080 CH2           1 RES     
    4138 CH2         11.6527     6.3940   -43.5203 CH2           1 RES     
    4139 CH2         11.2325     5.6163   -42.2593 CH2           1 RES     
    4140 CH2         10.7784     6.6073   -41.1715 CH2           1 RES     
    4141 CH2         10.3583     5.8296   -39.9105 CH2           1 RES     
    4142 CH2          9.9041     6.8206   -38.8228 CH2           1 RES     
    4143 CH2          9.4840     6.0429   -37.5617 CH2           1 RES     
    4144 CH2          9.0298     7.0339   -36.4740 CH2           1 RES     
    4145 CH2          8.6097     6.2562   -35.2130 CH2           1 RES     
    4146 CH2          8.1556     7.2473   -34.1253 CH2           1 RES     
    4147 CH2          7.7354     6.4695   -32.8642 CH2           1 RES     
    4148 CH2          7.2813     7.4606   -31.7765 CH2           1 RES     
    4149 CH2          6.8611     6.6828   -30.5155 CH2           1 RES     
    4150 CH2          6.4070     7.6739   -29.4278 CH2           1 RES     
    4151 C            6.0060     6.9315   -28.2240 C             1 RES     
    4152 C            8.0481     0.5008   -25.7583 C             1 RES     
    4153 CH2         12.7665     2.8061   -45.1238 CH2           1 RES     
    4154 CH2         12.0971     3.4653   -43.9036 CH2           1 RES     
    4155 CH2         12.1772     2.5126   -42.6963 CH2           1 RES     
    4156 CH2         11.5078     3.1717   -41.4760 CH2           1 RES     
    4157 CH2         11.5878     2.2190   -40.2687 CH2           1 RES     
    4158 CH2         10.9184     2.8781   -39.0485 CH2           1 RES     
    4159 CH2         10.9985     1.9254   -37.8412 CH2           1 RES     
    4160 CH2         10.3291     2.5845   -36.6209 CH2           1 RES     
    4161 CH2         10.4091     1.6318   -35.4136 CH2           1 RES     
    4162 CH2          9.7397     2.2909   -34.1934 CH2           1 RES     
    4163 CH2          9.8198     1.3382   -32.9861 CH2           1 RES     
    4164 CH2          9.1503     1.9974   -31.7658 CH2           1 RES     
    4165 CH2          9.2304     1.0447   -30.5585 CH2           1 RES     
    4166 CH2          8.5610     1.7038   -29.3383 CH2           1 RES     
    4167 CH2          8.6410     0.7511   -28.1310 CH2           1 RES     
    4168 CH2          7.9716     1.4102   -26.9107 CH2           1 RES     
    4169 C           29.0885    16.0895   -46.7467 C             1 RES     
    4170 O           29.4404    16.4317   -47.8745 O             1 RES     
    4171 O           29.0565    14.6708   -46.2605 O             1 RES     
    4172 CH2         28.9854    17.1527   -45.8690 CH2           1 RES     
    4173 CH2         28.5363    16.3913   -44.6080 CH2           1 RES     
    4174 CH2         28.1197    17.3987   -43.5203 CH2           1 RES     
    4175 CH2         27.6707    16.6373   -42.2593 CH2           1 RES     
    4176 CH2         27.2541    17.6447   -41.1715 CH2           1 RES     
    4177 CH2         26.8050    16.8833   -39.9105 CH2           1 RES     
    4178 CH2         26.3884    17.8907   -38.8228 CH2           1 RES     
    4179 CH2         25.9394    17.1292   -37.5617 CH2           1 RES     
    4180 CH2         25.5228    18.1367   -36.4740 CH2           1 RES     
    4181 CH2         25.0737    17.3752   -35.2130 CH2           1 RES     
    4182 CH2         24.6571    18.3826   -34.1253 CH2           1 RES     
    4183 CH2         24.2081    17.6212   -32.8642 CH2           1 RES     
    4184 CH2         23.7914    18.6286   -31.7765 CH2           1 RES     
    4185 CH2         23.3424    17.8672   -30.5155 CH2           1 RES     
    4186 CH2         22.9258    18.8746   -29.4278 CH2           1 RES     
    4187 C           22.4972    18.1478   -28.2240 C             1 RES     
    4188 C           24.2964    11.6450   -25.7583 C             1 RES     
    4189 CH2         29.0981    13.7716   -45.1238 CH2           1 RES     
    4190 CH2         28.4539    14.4553   -43.9036 CH2           1 RES     
    4191 CH2         28.4982    13.5003   -42.6963 CH2           1 RES     
    4192 CH2         27.8540    14.1841   -41.4760 CH2           1 RES     
    4193 CH2         27.8982    13.2291   -40.2687 CH2           1 RES     
    4194 CH2         27.2540    13.9128   -39.0485 CH2           1 RES     
    4195 CH2         27.2982    12.9578   -37.8412 CH2           1 RES     
    4196 CH2         26.6540    13.6416   -36.6209 CH2           1 RES     
    4197 CH2         26.6983    12.6866   -35.4136 CH2           1 RES     
    4198 CH2         26.0541    13.3703   -34.1934 CH2           1 RES     
    4199 CH2         26.0983    12.4153   -32.9861 CH2           1 RES     
    4200 CH2         25.4541    13.0991   -31.7658 CH2           1 RES     
    4201 CH2         25.4984    12.1441   -30.5585 CH2           1 RES     
    4202 CH2         24.8542    12.8278   -29.3383 CH2           1 RES     
    4203 CH2         24.8984    11.8728   -28.1310 CH2           1 RES     
    4204 CH2         24.2542    12.5566   -26.9107 CH2           1 RES     
    4205 C           45.5943    37.9359   -46.7467 C             1 RES     
    4206 O           45.8721    38.3406   -47.8745 O             1 RES     
    4207 O           45.8417    36.5386   -46.2605 O             1 RES     
    4208 CH2         45.2842    38.9582   -45.8690 CH2           1 RES     
    4209 CH2         44.9936    38.1233   -44.6080 CH2           1 RES     
    4210 CH2         44.3871    39.0292   -43.5203 CH2           1 RES     
    4211 CH2         44.0965    38.1944   -42.2593 CH2           1 RES     
    4212 CH2         43.4900    39.1002   -41.1715 CH2           1 RES     
    4213 CH2         43.1993    38.2654   -39.9105 CH2           1 RES     
    4214 CH2         42.5929    39.1713   -38.8228 CH2           1 RES     
    4215 CH2         42.3022    38.3364   -37.5617 CH2           1 RES     
    4216 CH2         41.6957    39.2423   -36.4740 CH2           1 RES     
    4217 CH2         41.4051    38.4075   -35.2130 CH2           1 RES     
    4218 CH2         40.7986    39.3134   -34.1253 CH2           1 RES     
    4219 CH2         40.5080    38.4785   -32.8642 CH2           1 RES     
    4220 CH2         39.9015    39.3844   -31.7765 CH2           1 RES     
    4221 CH2         39.6109    38.5496   -30.5155 CH2           1 RES     
    4222 CH2         39.0044    39.4554   -29.4278 CH2           1 RES     
    4223 C           38.7270    38.6585   -28.2240 C             1 RES     
    4224 C           41.7692    32.6362   -25.7583 C             1 RES     
    4225 CH2         46.0593    35.6651   -45.1238 CH2           1 RES     
    4226 CH2         45.2933    36.2089   -43.9036 CH2           1 RES     
    4227 CH2         45.5244    35.2812   -42.6963 CH2           1 RES     
    4228 CH2         44.7583    35.8250   -41.4760 CH2           1 RES     
    4229 CH2         44.9894    34.8973   -40.2687 CH2           1 RES     
    4230 CH2         44.2234    35.4412   -39.0485 CH2           1 RES     
    4231 CH2         44.4545    34.5134   -37.8412 CH2           1 RES     
    4232 CH2         43.6884    35.0573   -36.6209 CH2           1 RES     
    4233 CH2         43.9195    34.1296   -35.4136 CH2           1 RES     
    4234 CH2         43.1535    34.6734   -34.1934 CH2           1 RES     
    4235 CH2         43.3846    33.7457   -32.9861 CH2           1 RES     
    4236 CH2         42.6185    34.2895   -31.7658 CH2           1 RES     
    4237 CH2         42.8496    33.3618   -30.5585 CH2           1 RES     
    4238 CH2         42.0836    33.9056   -29.3383 CH2           1 RES     
    4239 CH2         42.3147    32.9779   -28.1310 CH2           1 RES     
    4240 CH2         41.5487    33.5218   -26.9107 CH2           1 RES     
    4241 C           45.7034    -0.4610   -46.7467 C             1 RES     
    4242 O           45.8721    -0.0000   -47.8745 O             1 RES     
    4243 O           46.2898    -1.7532   -46.2605 O             1 RES     
    4244 CH2         45.1494     0.4524   -45.8690 CH2           1 RES     
    4245 CH2         45.0749    -0.4284   -44.6080 CH2           1 RES     
    4246 CH2         44.2627     0.2987   -43.5203 CH2           1 RES     
    4247 CH2         44.1883    -0.5822   -42.2593 CH2           1 RES     
    4248 CH2         43.3760     0.1449   -41.1715 CH2           1 RES     
    4249 CH2         43.3016    -0.7359   -39.9105 CH2           1 RES     
    4250 CH2         42.4893    -0.0089   -38.8228 CH2           1 RES     
    4251 CH2         42.4149    -0.8897   -37.5617 CH2           1 RES     
    4252 CH2         41.6026    -0.1626   -36.4740 CH2           1 RES     
    4253 CH2         41.5282    -1.0435   -35.2130 CH2           1 RES     
    4254 CH2         40.7159    -0.3164   -34.1253 CH2           1 RES     
    4255 CH2         40.6415    -1.1972   -32.8642 CH2           1 RES     
    4256 CH2         39.8292    -0.4701   -31.7765 CH2           1 RES     
    4257 CH2         39.7548    -1.3510   -30.5155 CH2           1 RES     
    4258 CH2         38.9425    -0.6239   -29.4278 CH2           1 RES     
    4259 C           38.8715    -1.4647   -28.2240 C             1 RES     
    4260 C           43.3128    -6.5439   -25.7583 C             1 RES     
    4261 CH2         46.7172    -2.5454   -45.1238 CH2           1 RES     
    4262 CH2         45.8402    -2.2086   -43.9036 CH2           1 RES     
    4263 CH2         46.2943    -3.0500   -42.6963 CH2           1 RES     
    4264 CH2         45.4173    -2.7132   -41.4760 CH2           1 RES     
    4265 CH2         45.8713    -3.5546   -40.2687 CH2           1 RES     
    4266 CH2         44.9943    -3.2178   -39.0485 CH2           1 RES     
    4267 CH2         45.4483    -4.0592   -37.8412 CH2           1 RES     
    4268 CH2         44.5713    -3.7224   -36.6209 CH2           1 RES     
    4269 CH2         45.0253    -4.5638   -35.4136 CH2           1 RES     
    4270 CH2         44.1483    -4.2270   -34.1934 CH2           1 RES     
    4271 CH2         44.6024    -5.0684   -32.9861 CH2           1 RES     
    4272 CH2         43.7254    -4.7316   -31.7658 CH2           1 RES     
    4273 CH2         44.1794    -5.5730   -30.5585 CH2           1 RES     
    4274 CH2         43.3024    -5.2362   -29.3383 CH2           1 RES     
    4275 CH2         43.7564    -6.0776   -28.1310 CH2           1 RES     
    4276 CH2         42.8794    -5.7408   -26.9107 CH2           1 RES     
    4277 C           40.0803    32.4865   -46.7467 C             1 RES     
    4278 O           40.3948    32.8634   -47.8745 O             1 RES     
    4279 O           40.1956    31.0721   -46.2605 O             1 RES     
    4280 CH2         39.8675    33.5334   -45.8690 CH2           1 RES     
    4281 CH2         39.4998    32.7295   -44.6080 CH2           1 RES     
    4282 CH2         38.9810    33.6883   -43.5203 CH2           1 RES     
    4283 CH2         38.6133    32.8844   -42.2593 CH2           1 RES     
    4284 CH2         38.0945    33.8432   -41.1715 CH2           1 RES     
    4285 CH2         37.7269    33.0393   -39.9105 CH2           1 RES     
    4286 CH2         37.2080    33.9981   -38.8228 CH2           1 RES     
    4287 CH2         36.8404    33.1942   -37.5617 CH2           1 RES     
    4288 CH2         36.3215    34.1530   -36.4740 CH2           1 RES     
    4289 CH2         35.9539    33.3491   -35.2130 CH2           1 RES     
    4290 CH2         35.4351    34.3079   -34.1253 CH2           1 RES     
    4291 CH2         35.0674    33.5040   -32.8642 CH2           1 RES     
    4292 CH2         34.5486    34.4628   -31.7765 CH2           1 RES     
    4293 CH2         34.1809    33.6589   -30.5155 CH2           1 RES     
    4294 CH2         33.6621    34.6177   -29.4278 CH2           1 RES     
    4295 C           33.3111    33.8503   -28.2240 C             1 RES     
    4296 C           35.7749    27.5691   -25.7583 C             1 RES     
    4297 CH2         40.3302    30.1821   -45.1238 CH2           1 RES     
    4298 CH2         39.6186    30.7954   -43.9036 CH2           1 RES     
    4299 CH2         39.7616    29.8501   -42.6963 CH2           1 RES     
    4300 CH2         39.0500    30.4634   -41.4760 CH2           1 RES     
    4301 CH2         39.1930    29.5181   -40.2687 CH2           1 RES     
    4302 CH2         38.4814    30.1314   -39.0485 CH2           1 RES     
    4303 CH2         38.6244    29.1861   -37.8412 CH2           1 RES     
    4304 CH2         37.9128    29.7994   -36.6209 CH2           1 RES     
    4305 CH2         38.0558    28.8541   -35.4136 CH2           1 RES     
    4306 CH2         37.3442    29.4674   -34.1934 CH2           1 RES     
    4307 CH2         37.4872    28.5221   -32.9861 CH2           1 RES     
    4308 CH2         36.7756    29.1354   -31.7658 CH2           1 RES     
    4309 CH2         36.9186    28.1901   -30.5585 CH2           1 RES     
    4310 CH2         36.2070    28.8034   -29.3383 CH2           1 RES     
    4311 CH2         36.3500    27.8581   -28.1310 CH2           1 RES     
    4312 CH2         35.6384    28.4715   -26.9107 CH2           1 RES     
    4313 C           34.5988    10.5812   -46.7467 C             1 RES     
    4314 O           34.9176    10.9545   -47.8745 O             1 RES     
    4315 O           34.6981     9.1656   -46.2605 O             1 RES     
    4316 CH2         34.3979    11.6304   -45.8690 CH2           1 RES     
    4317 CH2         34.0212    10.8307   -44.6080 CH2           1 RES     
    4318 CH2         33.5132    11.7953   -43.5203 CH2           1 RES     
    4319 CH2         33.1365    10.9956   -42.2593 CH2           1 RES     
    4320 CH2         32.6286    11.9602   -41.1715 CH2           1 RES     
    4321 CH2         32.2518    11.1606   -39.9105 CH2           1 RES     
    4322 CH2         31.7439    12.1252   -38.8228 CH2           1 RES     
    4323 CH2         31.3671    11.3255   -37.5617 CH2           1 RES     
    4324 CH2         30.8592    12.2901   -36.4740 CH2           1 RES     
    4325 CH2         30.4824    11.4904   -35.2130 CH2           1 RES     
    4326 CH2         29.9745    12.4550   -34.1253 CH2           1 RES     
    4327 CH2         29.5977    11.6554   -32.8642 CH2           1 RES     
    4328 CH2         29.0898    12.6200   -31.7765 CH2           1 RES     
    4329 CH2         28.7131    11.8203   -30.5155 CH2           1 RES     
    4330 CH2         28.2051    12.7849   -29.4278 CH2           1 RES     
    4331 C           27.8455    12.0216   -28.2240 C             1 RES     
    4332 C           30.2380     5.7129   -25.7583 C             1 RES     
    4333 CH2         34.8226     8.2741   -45.1238 CH2           1 RES     
    4334 CH2         34.1180     8.8954   -43.9036 CH2           1 RES     
    4335 CH2         34.2503     7.9486   -42.6963 CH2           1 RES     
    4336 CH2         33.5457     8.5699   -41.4760 CH2           1 RES     
    4337 CH2         33.6780     7.6230   -40.2687 CH2           1 RES     
    4338 CH2         32.9733     8.2444   -39.0485 CH2           1 RES     
    4339 CH2         33.1056     7.2975   -37.8412 CH2           1 RES     
    4340 CH2         32.4010     7.9188   -36.6209 CH2           1 RES     
    4341 CH2         32.5333     6.9720   -35.4136 CH2           1 RES     
    4342 CH2         31.8287     7.5933   -34.1934 CH2           1 RES     
    4343 CH2         31.9610     6.6464   -32.9861 CH2           1 RES     
    4344 CH2         31.2564     7.2678   -31.7658 CH2           1 RES     
    4345 CH2         31.3887     6.3209   -30.5585 CH2           1 RES     
    4346 CH2         30.6840     6.9422   -29.3383 CH2           1 RES     
    4347 CH2         30.8163     5.9954   -28.1310 CH2           1 RES     
    4348 CH2         30.1117     6.6167   -26.9107 CH2           1 RES     
    4349 C           29.1681    32.4550   -46.7467 C             1 RES     
    4350 O           29.4404    32.8634   -47.8745 O             1 RES     
    4351 O           29.4342    31.0611   -46.2605 O             1 RES     
    4352 CH2         28.8443    33.4730   -45.8690 CH2           1 RES     
    4353 CH2         28.5649    32.6343   -44.6080 CH2           1 RES     
    4354 CH2         27.9463    33.5320   -43.5203 CH2           1 RES     
    4355 CH2         27.6669    32.6933   -42.2593 CH2           1 RES     
    4356 CH2         27.0483    33.5910   -41.1715 CH2           1 RES     
    4357 CH2         26.7689    32.7523   -39.9105 CH2           1 RES     
    4358 CH2         26.1503    33.6500   -38.8228 CH2           1 RES     
    4359 CH2         25.8709    32.8113   -37.5617 CH2           1 RES     
    4360 CH2         25.2523    33.7089   -36.4740 CH2           1 RES     
    4361 CH2         24.9729    32.8703   -35.2130 CH2           1 RES     
    4362 CH2         24.3544    33.7679   -34.1253 CH2           1 RES     
    4363 CH2         24.0749    32.9293   -32.8642 CH2           1 RES     
    4364 CH2         23.4564    33.8269   -31.7765 CH2           1 RES     
    4365 CH2         23.1770    32.9883   -30.5155 CH2           1 RES     
    4366 CH2         22.5584    33.8859   -29.4278 CH2           1 RES     
    4367 C           22.2917    33.0854   -28.2240 C             1 RES     
    4368 C           25.4145    27.1044   -25.7583 C             1 RES     
    4369 CH2         29.6635    30.1906   -45.1238 CH2           1 RES     
    4370 CH2         28.8903    30.7241   -43.9036 CH2           1 RES     
    4371 CH2         29.1338    29.7996   -42.6963 CH2           1 RES     
    4372 CH2         28.3605    30.3331   -41.4760 CH2           1 RES     
    4373 CH2         28.6040    29.4086   -40.2687 CH2           1 RES     
    4374 CH2         27.8308    29.9421   -39.0485 CH2           1 RES     
    4375 CH2         28.0743    29.0175   -37.8412 CH2           1 RES     
    4376 CH2         27.3010    29.5510   -36.6209 CH2           1 RES     
    4377 CH2         27.5445    28.6265   -35.4136 CH2           1 RES     
    4378 CH2         26.7713    29.1600   -34.1934 CH2           1 RES     
    4379 CH2         27.0148    28.2355   -32.9861 CH2           1 RES     
    4380 CH2         26.2415    28.7690   -31.7658 CH2           1 RES     
    4381 CH2         26.4851    27.8445   -30.5585 CH2           1 RES     
    4382 CH2         25.7118    28.3780   -29.3383 CH2           1 RES     
    4383 CH2         25.9553    27.4534   -28.1310 CH2           1 RES     
    4384 CH2         25.1821    27.9869   -26.9107 CH2           1 RES     
    4385 C           23.7038    26.9694   -46.7467 C             1 RES     
    4386 O           23.9632    27.3861   -47.8745 O             1 RES     
    4387 O           24.0137    25.5846   -46.2605 O             1 RES     
    4388 CH2         23.3482    27.9767   -45.8690 CH2           1 RES     
    4389 CH2         23.0953    27.1297   -44.6080 CH2           1 RES     
    4390 CH2         22.4488    28.0075   -43.5203 CH2           1 RES     
    4391 CH2         22.1959    27.1604   -42.2593 CH2           1 RES     
    4392 CH2         21.5494    28.0382   -41.1715 CH2           1 RES     
    4393 CH2         21.2965    27.1912   -39.9105 CH2           1 RES     
    4394 CH2         20.6500    28.0689   -38.8228 CH2           1 RES     
    4395 CH2         20.3971    27.2219   -37.5617 CH2           1 RES     
    4396 CH2         19.7506    28.0997   -36.4740 CH2           1 RES     
    4397 CH2         19.4977    27.2526   -35.2130 CH2           1 RES     
    4398 CH2         18.8512    28.1304   -34.1253 CH2           1 RES     
    4399 CH2         18.5983    27.2834   -32.8642 CH2           1 RES     
    4400 CH2         17.9518    28.1611   -31.7765 CH2           1 RES     
    4401 CH2         17.6989    27.3141   -30.5155 CH2           1 RES     
    4402 CH2         17.0524    28.1919   -29.4278 CH2           1 RES     
    4403 C           16.8110    27.3834   -28.2240 C             1 RES     
    4404 C           20.1203    21.5035   -25.7583 C             1 RES     
    4405 CH2         24.2702    24.7217   -45.1238 CH2           1 RES     
    4406 CH2         23.4805    25.2306   -43.9036 CH2           1 RES     
    4407 CH2         23.7530    24.3142   -42.6963 CH2           1 RES     
    4408 CH2         22.9633    24.8232   -41.4760 CH2           1 RES     
    4409 CH2         23.2358    23.9067   -40.2687 CH2           1 RES     
    4410 CH2         22.4462    24.4157   -39.0485 CH2           1 RES     
    4411 CH2         22.7186    23.4993   -37.8412 CH2           1 RES     
    4412 CH2         21.9290    24.0082   -36.6209 CH2           1 RES     
    4413 CH2         22.2014    23.0918   -35.4136 CH2           1 RES     
    4414 CH2         21.4118    23.6007   -34.1934 CH2           1 RES     
    4415 CH2         21.6842    22.6843   -32.9861 CH2           1 RES     
    4416 CH2         20.8946    23.1933   -31.7658 CH2           1 RES     
    4417 CH2         21.1670    22.2768   -30.5585 CH2           1 RES     
    4418 CH2         20.3774    22.7858   -29.3383 CH2           1 RES     
    4419 CH2         20.6498    21.8693   -28.1310 CH2           1 RES     
    4420 CH2         19.8602    22.3783   -26.9107 CH2           1 RES     
    4421 C           18.1983    -0.3977   -46.7467 C             1 RES     
    4422 O           18.4859    -0.0000   -47.8745 O             1 RES     
    4423 O           18.4112    -1.8007   -46.2605 O             1 RES     
    4424 CH2         17.9135     0.6319   -45.8690 CH2           1 RES     
    4425 CH2         17.6024    -0.1956   -44.6080 CH2           1 RES     
    4426 CH2         17.0184     0.7250   -43.5203 CH2           1 RES     
    4427 CH2         16.7073    -0.1024   -42.2593 CH2           1 RES     
    4428 CH2         16.1233     0.8181   -41.1715 CH2           1 RES     
    4429 CH2         15.8122    -0.0093   -39.9105 CH2           1 RES     
    4430 CH2         15.2282     0.9112   -38.8228 CH2           1 RES     
    4431 CH2         14.9171     0.0838   -37.5617 CH2           1 RES     
    4432 CH2         14.3331     1.0044   -36.4740 CH2           1 RES     
    4433 CH2         14.0220     0.1769   -35.2130 CH2           1 RES     
    4434 CH2         13.4380     1.0975   -34.1253 CH2           1 RES     
    4435 CH2         13.1269     0.2701   -32.8642 CH2           1 RES     
    4436 CH2         12.5429     1.1906   -31.7765 CH2           1 RES     
    4437 CH2         12.2318     0.3632   -30.5155 CH2           1 RES     
    4438 CH2         11.6478     1.2837   -29.4278 CH2           1 RES     
    4439 C           11.3508     0.4939   -28.2240 C             1 RES     
    4440 C           14.2438    -5.6015   -25.7583 C             1 RES     
    4441 CH2         18.6072    -2.6793   -45.1238 CH2           1 RES     
    4442 CH2         17.8548    -2.1168   -43.9036 CH2           1 RES     
    4443 CH2         18.0629    -3.0499   -42.6963 CH2           1 RES     
    4444 CH2         17.3106    -2.4873   -41.4760 CH2           1 RES     
    4445 CH2         17.5187    -3.4205   -40.2687 CH2           1 RES     
    4446 CH2         16.7663    -2.8579   -39.0485 CH2           1 RES     
    4447 CH2         16.9745    -3.7911   -37.8412 CH2           1 RES     
    4448 CH2         16.2221    -3.2285   -36.6209 CH2           1 RES     
    4449 CH2         16.4302    -4.1616   -35.4136 CH2           1 RES     
    4450 CH2         15.6778    -3.5991   -34.1934 CH2           1 RES     
    4451 CH2         15.8860    -4.5322   -32.9861 CH2           1 RES     
    4452 CH2         15.1336    -3.9697   -31.7658 CH2           1 RES     
    4453 CH2         15.3417    -4.9028   -30.5585 CH2           1 RES     
    4454 CH2         14.5894    -4.3402   -29.3383 CH2           1 RES     
    4455 CH2         14.7975    -5.2734   -28.1310 CH2           1 RES     
    4456 CH2         14.0451    -4.7108   -26.9107 CH2           1 RES     
    4457 C           12.6650    21.5585   -46.7467 C             1 RES     
    4458 O           13.0087    21.9089   -47.8745 O             1 RES     
    4459 O           12.6665    20.1394   -46.2605 O             1 RES     
    4460 CH2         12.5368    22.6190   -45.8690 CH2           1 RES     
    4461 CH2         12.1059    21.8472   -44.6080 CH2           1 RES     
    4462 CH2         11.6656    22.8445   -43.5203 CH2           1 RES     
    4463 CH2         11.2346    22.0727   -42.2593 CH2           1 RES     
    4464 CH2         10.7943    23.0699   -41.1715 CH2           1 RES     
    4465 CH2         10.3634    22.2981   -39.9105 CH2           1 RES     
    4466 CH2          9.9231    23.2954   -38.8228 CH2           1 RES     
    4467 CH2          9.4922    22.5236   -37.5617 CH2           1 RES     
    4468 CH2          9.0519    23.5209   -36.4740 CH2           1 RES     
    4469 CH2          8.6210    22.7490   -35.2130 CH2           1 RES     
    4470 CH2          8.1807    23.7463   -34.1253 CH2           1 RES     
    4471 CH2          7.7497    22.9745   -32.8642 CH2           1 RES     
    4472 CH2          7.3094    23.9718   -31.7765 CH2           1 RES     
    4473 CH2          6.8785    23.1999   -30.5155 CH2           1 RES     
    4474 CH2          6.4382    24.1972   -29.4278 CH2           1 RES     
    4475 C            6.0269    23.4605   -28.2240 C             1 RES     
    4476 C            7.9793    17.0020   -25.7583 C             1 RES     
    4477 CH2         12.7294    19.2414   -45.1238 CH2           1 RES     
    4478 CH2         12.0692    19.9098   -43.9036 CH2           1 RES     
    4479 CH2         12.1360    18.9561   -42.6963 CH2           1 RES     
    4480 CH2         11.4758    19.6245   -41.4760 CH2           1 RES     
    4481 CH2         11.5426    18.6707   -40.2687 CH2           1 RES     
    4482 CH2         10.8824    19.3391   -39.0485 CH2           1 RES     
    4483 CH2         10.9492    18.3854   -37.8412 CH2           1 RES     
    4484 CH2         10.2890    19.0538   -36.6209 CH2           1 RES     
    4485 CH2         10.3558    18.1001   -35.4136 CH2           1 RES     
    4486 CH2          9.6957    18.7684   -34.1934 CH2           1 RES     
    4487 CH2          9.7625    17.8147   -32.9861 CH2           1 RES     
    4488 CH2          9.1023    18.4831   -31.7658 CH2           1 RES     
    4489 CH2          9.1691    17.5294   -30.5585 CH2           1 RES     
    4490 CH2          8.5089    18.1977   -29.3383 CH2           1 RES     
    4491 CH2          8.5757    17.2440   -28.1310 CH2           1 RES     
    4492 CH2          7.9155    17.9124   -26.9107 CH2           1 RES     
    4493 C           12.7426    10.5420   -46.7467 C             1 RES     
    4494 O           13.0087    10.9545   -47.8745 O             1 RES     
    4495 O           13.0300     9.1523   -46.2605 O             1 RES     
    4496 CH2         12.4034    11.5549   -45.8690 CH2           1 RES     
    4497 CH2         12.1368    10.7121   -44.6080 CH2           1 RES     
    4498 CH2         11.5046    11.6003   -43.5203 CH2           1 RES     
    4499 CH2         11.2380    10.7574   -42.2593 CH2           1 RES     
    4500 CH2         10.6058    11.6456   -41.1715 CH2           1 RES     
    4501 CH2         10.3392    10.8027   -39.9105 CH2           1 RES     
    4502 CH2          9.7071    11.6909   -38.8228 CH2           1 RES     
    4503 CH2          9.4405    10.8481   -37.5617 CH2           1 RES     
    4504 CH2          8.8083    11.7362   -36.4740 CH2           1 RES     
    4505 CH2          8.5417    10.8934   -35.2130 CH2           1 RES     
    4506 CH2          7.9095    11.7815   -34.1253 CH2           1 RES     
    4507 CH2          7.6429    10.9387   -32.8642 CH2           1 RES     
    4508 CH2          7.0107    11.8268   -31.7765 CH2           1 RES     
    4509 CH2          6.7441    10.9840   -30.5155 CH2           1 RES     
    4510 CH2          6.1119    11.8722   -29.4278 CH2           1 RES     
    4511 C            5.8574    11.0676   -28.2240 C             1 RES     
    4512 C            9.0709     5.1349   -25.7583 C             1 RES     
    4513 CH2         13.2725     8.2854   -45.1238 CH2           1 RES     
    4514 CH2         12.4912     8.8071   -43.9036 CH2           1 RES     
    4515 CH2         12.7488     7.8864   -42.6963 CH2           1 RES     
    4516 CH2         11.9675     8.4080   -41.4760 CH2           1 RES     
    4517 CH2         12.2250     7.4873   -40.2687 CH2           1 RES     
    4518 CH2         11.4437     8.0090   -39.0485 CH2           1 RES     
    4519 CH2         11.7013     7.0883   -37.8412 CH2           1 RES     
    4520 CH2         10.9200     7.6100   -36.6209 CH2           1 RES     
    4521 CH2         11.1776     6.6892   -35.4136 CH2           1 RES     
    4522 CH2         10.3963     7.2109   -34.1934 CH2           1 RES     
    4523 CH2         10.6538     6.2902   -32.9861 CH2           1 RES     
    4524 CH2          9.8726     6.8119   -31.7658 CH2           1 RES     
    4525 CH2         10.1301     5.8912   -30.5585 CH2           1 RES     
    4526 CH2          9.3488     6.4128   -29.3383 CH2           1 RES     
    4527 CH2          9.6064     5.4921   -28.1310 CH2           1 RES     
    4528 CH2          8.8251     6.0138   -26.9107 CH2           1 RES     
    4529 C           29.1201     5.1052   -46.7467 C             1 RES     
    4530 O           29.4404     5.4772   -47.8745 O             1 RES     
    4531 O           29.2137     3.6893   -46.2605 O             1 RES     
    4532 CH2         28.9234     6.1552   -45.8690 CH2           1 RES     
    4533 CH2         28.5434     5.3571   -44.6080 CH2           1 RES     
    4534 CH2         28.0394     6.3237   -43.5203 CH2           1 RES     
    4535 CH2         27.6594     5.5255   -42.2593 CH2           1 RES     
    4536 CH2         27.1553     6.4921   -41.1715 CH2           1 RES     
    4537 CH2         26.7754     5.6939   -39.9105 CH2           1 RES     
    4538 CH2         26.2713     6.6605   -38.8228 CH2           1 RES     
    4539 CH2         25.8914     5.8624   -37.5617 CH2           1 RES     
    4540 CH2         25.3873     6.8290   -36.4740 CH2           1 RES     
    4541 CH2         25.0074     6.0308   -35.2130 CH2           1 RES     
    4542 CH2         24.5033     6.9974   -34.1253 CH2           1 RES     
    4543 CH2         24.1233     6.1993   -32.8642 CH2           1 RES     
    4544 CH2         23.6193     7.1659   -31.7765 CH2           1 RES     
    4545 CH2         23.2393     6.3677   -30.5155 CH2           1 RES     
    4546 CH2         22.7352     7.3343   -29.4278 CH2           1 RES     
    4547 C           22.3726     6.5724   -28.2240 C             1 RES     
    4548 C           24.7400     0.2543   -25.7583 C             1 RES     
    4549 CH2         29.3348     2.7973   -45.1238 CH2           1 RES     
    4550 CH2         28.6326     3.4214   -43.9036 CH2           1 RES     
    4551 CH2         28.7611     2.4740   -42.6963 CH2           1 RES     
    4552 CH2         28.0590     3.0981   -41.4760 CH2           1 RES     
    4553 CH2         28.1875     2.1507   -40.2687 CH2           1 RES     
    4554 CH2         27.4854     2.7749   -39.0485 CH2           1 RES     
    4555 CH2         27.6139     1.8275   -37.8412 CH2           1 RES     
    4556 CH2         26.9118     2.4516   -36.6209 CH2           1 RES     
    4557 CH2         27.0403     1.5042   -35.4136 CH2           1 RES     
    4558 CH2         26.3381     2.1284   -34.1934 CH2           1 RES     
    4559 CH2         26.4667     1.1810   -32.9861 CH2           1 RES     
    4560 CH2         25.7645     1.8051   -31.7658 CH2           1 RES     
    4561 CH2         25.8931     0.8577   -30.5585 CH2           1 RES     
    4562 CH2         25.1909     1.4819   -29.3383 CH2           1 RES     
    4563 CH2         25.3195     0.5345   -28.1310 CH2           1 RES     
    4564 CH2         24.6173     1.1586   -26.9107 CH2           1 RES     
    4565 C           34.5957    -0.3706   -46.7467 C             1 RES     
    4566 O           34.9176    -0.0000   -47.8745 O             1 RES     
    4567 O           34.6832    -1.7870   -46.2605 O             1 RES     
    4568 CH2         34.4036     0.6802   -45.8690 CH2           1 RES     
    4569 CH2         34.0202    -0.1163   -44.6080 CH2           1 RES     
    4570 CH2         33.5203     0.8525   -43.5203 CH2           1 RES     
    4571 CH2         33.1369     0.0560   -42.2593 CH2           1 RES     
    4572 CH2         32.6370     1.0248   -41.1715 CH2           1 RES     
    4573 CH2         32.2536     0.2283   -39.9105 CH2           1 RES     
    4574 CH2         31.7537     1.1971   -38.8228 CH2           1 RES     
    4575 CH2         31.3703     0.4006   -37.5617 CH2           1 RES     
    4576 CH2         30.8705     1.3694   -36.4740 CH2           1 RES     
    4577 CH2         30.4870     0.5729   -35.2130 CH2           1 RES     
    4578 CH2         29.9872     1.5417   -34.1253 CH2           1 RES     
    4579 CH2         29.6038     0.7452   -32.8642 CH2           1 RES     
    4580 CH2         29.1039     1.7140   -31.7765 CH2           1 RES     
    4581 CH2         28.7205     0.9175   -30.5155 CH2           1 RES     
    4582 CH2         28.2206     1.8863   -29.4278 CH2           1 RES     
    4583 C           27.8546     1.1260   -28.2240 C             1 RES     
    4584 C           30.1945    -5.2024   -25.7583 C             1 RES     
    4585 CH2         34.8003    -2.6795   -45.1238 CH2           1 RES     
    4586 CH2         34.1009    -2.0523   -43.9036 CH2           1 RES     
    4587 CH2         34.2253    -3.0002   -42.6963 CH2           1 RES     
    4588 CH2         33.5259    -2.3731   -41.4760 CH2           1 RES     
    4589 CH2         33.6503    -3.3210   -40.2687 CH2           1 RES     
    4590 CH2         32.9508    -2.6938   -39.0485 CH2           1 RES     
    4591 CH2         33.0753    -3.6417   -37.8412 CH2           1 RES     
    4592 CH2         32.3758    -3.0146   -36.6209 CH2           1 RES     
    4593 CH2         32.5002    -3.9625   -35.4136 CH2           1 RES     
    4594 CH2         31.8008    -3.3353   -34.1934 CH2           1 RES     
    4595 CH2         31.9252    -4.2833   -32.9861 CH2           1 RES     
    4596 CH2         31.2258    -3.6561   -31.7658 CH2           1 RES     
    4597 CH2         31.3502    -4.6040   -30.5585 CH2           1 RES     
    4598 CH2         30.6508    -3.9768   -29.3383 CH2           1 RES     
    4599 CH2         30.7752    -4.9248   -28.1310 CH2           1 RES     
    4600 CH2         30.0758    -4.2976   -26.9107 CH2           1 RES     
    4601 C           45.6678    10.5081   -46.7467 C             1 RES     
    4602 O           45.8721    10.9545   -47.8745 O             1 RES     
    4603 O           46.1514     9.1740   -46.2605 O             1 RES     
    4604 CH2         45.1870    11.4620   -45.8690 CH2           1 RES     
    4605 CH2         45.0439    10.5897   -44.6080 CH2           1 RES     
    4606 CH2         44.2910    11.3781   -43.5203 CH2           1 RES     
    4607 CH2         44.1479    10.5057   -42.2593 CH2           1 RES     
    4608 CH2         43.3950    11.2941   -41.1715 CH2           1 RES     
    4609 CH2         43.2519    10.4218   -39.9105 CH2           1 RES     
    4610 CH2         42.4990    11.2102   -38.8228 CH2           1 RES     
    4611 CH2         42.3559    10.3379   -37.5617 CH2           1 RES     
    4612 CH2         41.6030    11.1263   -36.4740 CH2           1 RES     
    4613 CH2         41.4599    10.2539   -35.2130 CH2           1 RES     
    4614 CH2         40.7070    11.0423   -34.1253 CH2           1 RES     
    4615 CH2         40.5639    10.1700   -32.8642 CH2           1 RES     
    4616 CH2         39.8110    10.9584   -31.7765 CH2           1 RES     
    4617 CH2         39.6679    10.0861   -30.5155 CH2           1 RES     
    4618 CH2         38.9150    10.8744   -29.4278 CH2           1 RES     
    4619 C           38.7784    10.0418   -28.2240 C             1 RES     
    4620 C           42.8088     4.6307   -25.7583 C             1 RES     
    4621 CH2         46.5156     8.3507   -45.1238 CH2           1 RES     
    4622 CH2         45.6676     8.7551   -43.9036 CH2           1 RES     
    4623 CH2         46.0544     7.8808   -42.6963 CH2           1 RES     
    4624 CH2         45.2065     8.2851   -41.4760 CH2           1 RES     
    4625 CH2         45.5933     7.4108   -40.2687 CH2           1 RES     
    4626 CH2         44.7453     7.8151   -39.0485 CH2           1 RES     
    4627 CH2         45.1321     6.9408   -37.8412 CH2           1 RES     
    4628 CH2         44.2842     7.3452   -36.6209 CH2           1 RES     
    4629 CH2         44.6710     6.4709   -35.4136 CH2           1 RES     
    4630 CH2         43.8230     6.8752   -34.1934 CH2           1 RES     
    4631 CH2         44.2098     6.0009   -32.9861 CH2           1 RES     
    4632 CH2         43.3619     6.4052   -31.7658 CH2           1 RES     
    4633 CH2         43.7487     5.5309   -30.5585 CH2           1 RES     
    4634 CH2         42.9007     5.9353   -29.3383 CH2           1 RES     
    4635 CH2         43.2875     5.0610   -28.1310 CH2           1 RES     
    4636 CH2         42.4396     5.4653   -26.9107 CH2           1 RES     
    4637 C           29.1927    -0.4238   -46.7467 C             1 RES     
    4638 O           29.4404    -0.0000   -47.8745 O             1 RES     
    4639 O           29.5409    -1.7995   -46.2605 O             1 RES     
    4640 CH2         28.8093     0.5733   -45.8690 CH2           1 RES     
    4641 CH2         28.5800    -0.2804   -44.6080 CH2           1 RES     
    4642 CH2         27.9094     0.5791   -43.5203 CH2           1 RES     
    4643 CH2         27.6801    -0.2747   -42.2593 CH2           1 RES     
    4644 CH2         27.0095     0.5848   -41.1715 CH2           1 RES     
    4645 CH2         26.7802    -0.2689   -39.9105 CH2           1 RES     
    4646 CH2         26.1096     0.5906   -38.8228 CH2           1 RES     
    4647 CH2         25.8803    -0.2631   -37.5617 CH2           1 RES     
    4648 CH2         25.2097     0.5964   -36.4740 CH2           1 RES     
    4649 CH2         24.9804    -0.2574   -35.2130 CH2           1 RES     
    4650 CH2         24.3097     0.6021   -34.1253 CH2           1 RES     
    4651 CH2         24.0804    -0.2516   -32.8642 CH2           1 RES     
    4652 CH2         23.4098     0.6079   -31.7765 CH2           1 RES     
    4653 CH2         23.1805    -0.2458   -30.5155 CH2           1 RES     
    4654 CH2         22.5099     0.6137   -29.4278 CH2           1 RES     
    4655 C           22.2911    -0.2012   -28.2240 C             1 RES     
    4656 C           25.7622    -5.9870   -25.7583 C             1 RES     
    4657 CH2         29.8212    -2.6549   -45.1238 CH2           1 RES     
    4658 CH2         29.0178    -2.1680   -43.9036 CH2           1 RES     
    4659 CH2         29.3155    -3.0766   -42.6963 CH2           1 RES     
    4660 CH2         28.5121    -2.5897   -41.4760 CH2           1 RES     
    4661 CH2         28.8099    -3.4982   -40.2687 CH2           1 RES     
    4662 CH2         28.0064    -3.0114   -39.0485 CH2           1 RES     
    4663 CH2         28.3042    -3.9199   -37.8412 CH2           1 RES     
    4664 CH2         27.5007    -3.4331   -36.6209 CH2           1 RES     
    4665 CH2         27.7985    -4.3416   -35.4136 CH2           1 RES     
    4666 CH2         26.9950    -3.8547   -34.1934 CH2           1 RES     
    4667 CH2         27.2928    -4.7632   -32.9861 CH2           1 RES     
    4668 CH2         26.4893    -4.2764   -31.7658 CH2           1 RES     
    4669 CH2         26.7871    -5.1849   -30.5585 CH2           1 RES     
    4670 CH2         25.9837    -4.6981   -29.3383 CH2           1 RES     
    4671 CH2         26.2814    -5.6066   -28.1310 CH2           1 RES     
    4672 CH2         25.4780    -5.1198   -26.9107 CH2           1 RES     
    4673 C           29.2150    10.5184   -46.7467 C             1 RES     
    4674 O           29.4404    10.9545   -47.8745 O             1 RES     
    4675 O           29.6339     9.1626   -46.2605 O             1 RES     
    4676 CH2         28.7805    11.4943   -45.8690 CH2           1 RES     
    4677 CH2         28.5956    10.6299   -44.6080 CH2           1 RES     
    4678 CH2         27.8815    11.4535   -43.5203 CH2           1 RES     
    4679 CH2         27.6966    10.5891   -42.2593 CH2           1 RES     
    4680 CH2         26.9825    11.4127   -41.1715 CH2           1 RES     
    4681 CH2         26.7976    10.5482   -39.9105 CH2           1 RES     
    4682 CH2         26.0835    11.3719   -38.8228 CH2           1 RES     
    4683 CH2         25.8986    10.5074   -37.5617 CH2           1 RES     
    4684 CH2         25.1845    11.3311   -36.4740 CH2           1 RES     
    4685 CH2         24.9996    10.4666   -35.2130 CH2           1 RES     
    4686 CH2         24.2855    11.2903   -34.1253 CH2           1 RES     
    4687 CH2         24.1006    10.4258   -32.8642 CH2           1 RES     
    4688 CH2         23.3865    11.2494   -31.7765 CH2           1 RES     
    4689 CH2         23.2016    10.3850   -30.5155 CH2           1 RES     
    4690 CH2         22.4875    11.2086   -29.4278 CH2           1 RES     
    4691 C           22.3111    10.3835   -28.2240 C             1 RES     
    4692 C           26.0770     4.7851   -25.7583 C             1 RES     
    4693 CH2         29.9581     8.3228   -45.1238 CH2           1 RES     
    4694 CH2         29.1305     8.7674   -43.9036 CH2           1 RES     
    4695 CH2         29.4749     7.8756   -42.6963 CH2           1 RES     
    4696 CH2         28.6474     8.3202   -41.4760 CH2           1 RES     
    4697 CH2         28.9918     7.4283   -40.2687 CH2           1 RES     
    4698 CH2         28.1642     7.8729   -39.0485 CH2           1 RES     
    4699 CH2         28.5086     6.9810   -37.8412 CH2           1 RES     
    4700 CH2         27.6810     7.4256   -36.6209 CH2           1 RES     
    4701 CH2         28.0254     6.5337   -35.4136 CH2           1 RES     
    4702 CH2         27.1978     6.9783   -34.1934 CH2           1 RES     
    4703 CH2         27.5422     6.0864   -32.9861 CH2           1 RES     
    4704 CH2         26.7146     6.5310   -31.7658 CH2           1 RES     
    4705 CH2         27.0590     5.6392   -30.5585 CH2           1 RES     
    4706 CH2         26.2314     6.0838   -29.3383 CH2           1 RES     
    4707 CH2         26.5758     5.1919   -28.1310 CH2           1 RES     
    4708 CH2         25.7482     5.6365   -26.9107 CH2           1 RES     
    4709 C            7.3786     5.0108   -46.7467 C             1 RES     
    4710 O            7.5315     5.4772   -47.8745 O             1 RES     
    4711 O            8.0086     3.7393   -46.2605 O             1 RES     
    4712 CH2          6.7938     5.9048   -45.8690 CH2           1 RES     
    4713 CH2          6.7494     5.0219   -44.6080 CH2           1 RES     
    4714 CH2          5.9129     5.7210   -43.5203 CH2           1 RES     
    4715 CH2          5.8685     4.8381   -42.2593 CH2           1 RES     
    4716 CH2          5.0319     5.5371   -41.1715 CH2           1 RES     
    4717 CH2          4.9875     4.6542   -39.9105 CH2           1 RES     
    4718 CH2          4.1510     5.3533   -38.8228 CH2           1 RES     
    4719 CH2          4.1066     4.4704   -37.5617 CH2           1 RES     
    4720 CH2          3.2700     5.1694   -36.4740 CH2           1 RES     
    4721 CH2          3.2256     4.2866   -35.2130 CH2           1 RES     
    4722 CH2          2.3891     4.9856   -34.1253 CH2           1 RES     
    4723 CH2          2.3447     4.1027   -32.8642 CH2           1 RES     
    4724 CH2          1.5081     4.8018   -31.7765 CH2           1 RES     
    4725 CH2          1.4637     3.9189   -30.5155 CH2           1 RES     
    4726 CH2          0.6272     4.6179   -29.4278 CH2           1 RES     
    4727 C            0.5848     3.7752   -28.2240 C             1 RES     
    4728 C            5.1963    -1.1500   -25.7583 C             1 RES     
    4729 CH2          8.4628     2.9620   -45.1238 CH2           1 RES     
    4730 CH2          7.5748     3.2688   -43.9036 CH2           1 RES     
    4731 CH2          8.0572     2.4434   -42.6963 CH2           1 RES     
    4732 CH2          7.1693     2.7501   -41.4760 CH2           1 RES     
    4733 CH2          7.6517     1.9247   -40.2687 CH2           1 RES     
    4734 CH2          6.7637     2.2314   -39.0485 CH2           1 RES     
    4735 CH2          7.2461     1.4060   -37.8412 CH2           1 RES     
    4736 CH2          6.3581     1.7127   -36.6209 CH2           1 RES     
    4737 CH2          6.8405     0.8873   -35.4136 CH2           1 RES     
    4738 CH2          5.9526     1.1940   -34.1934 CH2           1 RES     
    4739 CH2          6.4350     0.3686   -32.9861 CH2           1 RES     
    4740 CH2          5.5470     0.6753   -31.7658 CH2           1 RES     
    4741 CH2          6.0294    -0.1501   -30.5585 CH2           1 RES     
    4742 CH2          5.1414     0.1566   -29.3383 CH2           1 RES     
    4743 CH2          5.6238    -0.6688   -28.1310 CH2           1 RES     
    4744 CH2          4.7359    -0.3621   -26.9107 CH2           1 RES     
    4745 C           40.1921    37.8935   -46.7467 C             1 RES     
    4746 O           40.3948    38.3406   -47.8745 O             1 RES     
    4747 O           40.6800    36.5610   -46.2605 O             1 RES     
    4748 CH2         39.7081    38.8459   -45.8690 CH2           1 RES     
    4749 CH2         39.5679    37.9731   -44.6080 CH2           1 RES     
    4750 CH2         38.8124    38.7590   -43.5203 CH2           1 RES     
    4751 CH2         38.6721    37.8862   -42.2593 CH2           1 RES     
    4752 CH2         37.9166    38.6721   -41.1715 CH2           1 RES     
    4753 CH2         37.7764    37.7993   -39.9105 CH2           1 RES     
    4754 CH2         37.0209    38.5852   -38.8228 CH2           1 RES     
    4755 CH2         36.8807    37.7124   -37.5617 CH2           1 RES     
    4756 CH2         36.1252    38.4983   -36.4740 CH2           1 RES     
    4757 CH2         35.9850    37.6255   -35.2130 CH2           1 RES     
    4758 CH2         35.2295    38.4114   -34.1253 CH2           1 RES     
    4759 CH2         35.0893    37.5386   -32.8642 CH2           1 RES     
    4760 CH2         34.3338    38.3245   -31.7765 CH2           1 RES     
    4761 CH2         34.1935    37.4517   -30.5155 CH2           1 RES     
    4762 CH2         33.4380    38.2376   -29.4278 CH2           1 RES     
    4763 C           33.3042    37.4045   -28.2240 C             1 RES     
    4764 C           37.3525    32.0068   -25.7583 C             1 RES     
    4765 CH2         41.0469    35.7390   -45.1238 CH2           1 RES     
    4766 CH2         40.1976    36.1405   -43.9036 CH2           1 RES     
    4767 CH2         40.5874    35.2675   -42.6963 CH2           1 RES     
    4768 CH2         39.7380    35.6691   -41.4760 CH2           1 RES     
    4769 CH2         40.1278    34.7960   -40.2687 CH2           1 RES     
    4770 CH2         39.2785    35.1976   -39.0485 CH2           1 RES     
    4771 CH2         39.6682    34.3245   -37.8412 CH2           1 RES     
    4772 CH2         38.8189    34.7261   -36.6209 CH2           1 RES     
    4773 CH2         39.2086    33.8531   -35.4136 CH2           1 RES     
    4774 CH2         38.3593    34.2546   -34.1934 CH2           1 RES     
    4775 CH2         38.7490    33.3816   -32.9861 CH2           1 RES     
    4776 CH2         37.8997    33.7831   -31.7658 CH2           1 RES     
    4777 CH2         38.2894    32.9101   -30.5585 CH2           1 RES     
    4778 CH2         37.4401    33.3116   -29.3383 CH2           1 RES     
    4779 CH2         37.8298    32.4386   -28.1310 CH2           1 RES     
    4780 CH2         36.9805    32.8401   -26.9107 CH2           1 RES     
    4781 C           34.6048    21.5307   -46.7467 C             1 RES     
    4782 O           34.9176    21.9089   -47.8745 O             1 RES     
    4783 O           34.7263    20.1168   -46.2605 O             1 RES     
    4784 CH2         34.3873    22.5766   -45.8690 CH2           1 RES     
    4785 CH2         34.0232    21.7711   -44.6080 CH2           1 RES     
    4786 CH2         33.5002    22.7275   -43.5203 CH2           1 RES     
    4787 CH2         33.1360    21.9220   -42.2593 CH2           1 RES     
    4788 CH2         32.6130    22.8785   -41.1715 CH2           1 RES     
    4789 CH2         32.2489    22.0730   -39.9105 CH2           1 RES     
    4790 CH2         31.7258    23.0295   -38.8228 CH2           1 RES     
    4791 CH2         31.3617    22.2240   -37.5617 CH2           1 RES     
    4792 CH2         30.8387    23.1805   -36.4740 CH2           1 RES     
    4793 CH2         30.4745    22.3749   -35.2130 CH2           1 RES     
    4794 CH2         29.9515    23.3314   -34.1253 CH2           1 RES     
    4795 CH2         29.5874    22.5259   -32.8642 CH2           1 RES     
    4796 CH2         29.0643    23.4824   -31.7765 CH2           1 RES     
    4797 CH2         28.7002    22.6769   -30.5155 CH2           1 RES     
    4798 CH2         28.1771    23.6334   -29.4278 CH2           1 RES     
    4799 C           27.8296    22.8645   -28.2240 C             1 RES     
    4800 C           30.3212    16.5943   -25.7583 C             1 RES     
    4801 CH2         34.8649    19.2274   -45.1238 CH2           1 RES     
    4802 CH2         34.1505    19.8375   -43.9036 CH2           1 RES     
    4803 CH2         34.2977    18.8929   -42.6963 CH2           1 RES     
    4804 CH2         33.5834    19.5030   -41.4760 CH2           1 RES     
    4805 CH2         33.7306    18.5584   -40.2687 CH2           1 RES     
    4806 CH2         33.0163    19.1685   -39.0485 CH2           1 RES     
    4807 CH2         33.1635    18.2238   -37.8412 CH2           1 RES     
    4808 CH2         32.4492    18.8340   -36.6209 CH2           1 RES     
    4809 CH2         32.5964    17.8893   -35.4136 CH2           1 RES     
    4810 CH2         31.8820    18.4995   -34.1934 CH2           1 RES     
    4811 CH2         32.0292    17.5548   -32.9861 CH2           1 RES     
    4812 CH2         31.3149    18.1650   -31.7658 CH2           1 RES     
    4813 CH2         31.4621    17.2203   -30.5585 CH2           1 RES     
    4814 CH2         30.7478    17.8305   -29.3383 CH2           1 RES     
    4815 CH2         30.8950    16.8858   -28.1310 CH2           1 RES     
    4816 CH2         30.1806    17.4960   -26.9107 CH2           1 RES     
    4817 C           12.7641    26.9605   -46.7467 C             1 RES     
    4818 O           13.0087    27.3861   -47.8745 O             1 RES     
    4819 O           13.1222    25.5874   -46.2605 O             1 RES     
    4820 CH2         12.3735    27.9548   -45.8690 CH2           1 RES     
    4821 CH2         12.1504    27.0995   -44.6080 CH2           1 RES     
    4822 CH2         11.4735    27.9541   -43.5203 CH2           1 RES     
    4823 CH2         11.2504    27.0987   -42.2593 CH2           1 RES     
    4824 CH2         10.5736    27.9533   -41.1715 CH2           1 RES     
    4825 CH2         10.3505    27.0979   -39.9105 CH2           1 RES     
    4826 CH2          9.6737    27.9526   -38.8228 CH2           1 RES     
    4827 CH2          9.4506    27.0972   -37.5617 CH2           1 RES     
    4828 CH2          8.7738    27.9518   -36.4740 CH2           1 RES     
    4829 CH2          8.5507    27.0964   -35.2130 CH2           1 RES     
    4830 CH2          7.8738    27.9510   -34.1253 CH2           1 RES     
    4831 CH2          7.6507    27.0957   -32.8642 CH2           1 RES     
    4832 CH2          6.9739    27.9503   -31.7765 CH2           1 RES     
    4833 CH2          6.7508    27.0949   -30.5155 CH2           1 RES     
    4834 CH2          6.0740    27.9495   -29.4278 CH2           1 RES     
    4835 C            5.8610    27.1330   -28.2240 C             1 RES     
    4836 C            9.3741    21.3726   -25.7583 C             1 RES     
    4837 CH2         13.4088    24.7341   -45.1238 CH2           1 RES     
    4838 CH2         12.6018    25.2151   -43.9036 CH2           1 RES     
    4839 CH2         12.9062    24.3088   -42.6963 CH2           1 RES     
    4840 CH2         12.0992    24.7897   -41.4760 CH2           1 RES     
    4841 CH2         12.4036    23.8834   -40.2687 CH2           1 RES     
    4842 CH2         11.5966    24.3644   -39.0485 CH2           1 RES     
    4843 CH2         11.9010    23.4581   -37.8412 CH2           1 RES     
    4844 CH2         11.0940    23.9391   -36.6209 CH2           1 RES     
    4845 CH2         11.3984    23.0328   -35.4136 CH2           1 RES     
    4846 CH2         10.5914    23.5137   -34.1934 CH2           1 RES     
    4847 CH2         10.8957    22.6074   -32.9861 CH2           1 RES     
    4848 CH2         10.0888    23.0884   -31.7658 CH2           1 RES     
    4849 CH2         10.3931    22.1821   -30.5585 CH2           1 RES     
    4850 CH2          9.5862    22.6631   -29.3383 CH2           1 RES     
    4851 CH2          9.8905    21.7568   -28.1310 CH2           1 RES     
    4852 CH2          9.0835    22.2378   -26.9107 CH2           1 RES     
    4853 C           12.7740    16.0005   -46.7467 C             1 RES     
    4854 O           13.0087    16.4317   -47.8745 O             1 RES     
    4855 O           13.1639    14.6361   -46.2605 O             1 RES     
    4856 CH2         12.3604    16.9855   -45.8690 CH2           1 RES     
    4857 CH2         12.1572    16.1252   -44.6080 CH2           1 RES     
    4858 CH2         11.4608    16.9639   -43.5203 CH2           1 RES     
    4859 CH2         11.2576    16.1036   -42.2593 CH2           1 RES     
    4860 CH2         10.5611    16.9423   -41.1715 CH2           1 RES     
    4861 CH2         10.3579    16.0820   -39.9105 CH2           1 RES     
    4862 CH2          9.6615    16.9206   -38.8228 CH2           1 RES     
    4863 CH2          9.4582    16.0603   -37.5617 CH2           1 RES     
    4864 CH2          8.7618    16.8990   -36.4740 CH2           1 RES     
    4865 CH2          8.5586    16.0387   -35.2130 CH2           1 RES     
    4866 CH2          7.8621    16.8774   -34.1253 CH2           1 RES     
    4867 CH2          7.6589    16.0171   -32.8642 CH2           1 RES     
    4868 CH2          6.9625    16.8558   -31.7765 CH2           1 RES     
    4869 CH2          6.7592    15.9955   -30.5155 CH2           1 RES     
    4870 CH2          6.0628    16.8342   -29.4278 CH2           1 RES     
    4871 C            5.8688    16.0129   -28.2240 C             1 RES     
    4872 C            9.5144    10.3355   -25.7583 C             1 RES     
    4873 CH2         13.4702    13.7896   -45.1238 CH2           1 RES     
    4874 CH2         12.6523    14.2518   -43.9036 CH2           1 RES     
    4875 CH2         12.9776    13.3527   -42.6963 CH2           1 RES     
    4876 CH2         12.1596    13.8149   -41.4760 CH2           1 RES     
    4877 CH2         12.4849    12.9159   -40.2687 CH2           1 RES     
    4878 CH2         11.6670    13.3780   -39.0485 CH2           1 RES     
    4879 CH2         11.9923    12.4790   -37.8412 CH2           1 RES     
    4880 CH2         11.1744    12.9412   -36.6209 CH2           1 RES     
    4881 CH2         11.4997    12.0421   -35.4136 CH2           1 RES     
    4882 CH2         10.6818    12.5043   -34.1934 CH2           1 RES     
    4883 CH2         11.0071    11.6053   -32.9861 CH2           1 RES     
    4884 CH2         10.1892    12.0674   -31.7658 CH2           1 RES     
    4885 CH2         10.5145    11.1684   -30.5585 CH2           1 RES     
    4886 CH2          9.6966    11.6306   -29.3383 CH2           1 RES     
    4887 CH2         10.0218    10.7315   -28.1310 CH2           1 RES     
    4888 CH2          9.2039    11.1937   -26.9107 CH2           1 RES     
    4889 C           18.1973    21.5118   -46.7467 C             1 RES     
    4890 O           18.4859    21.9089   -47.8745 O             1 RES     
    4891 O           18.4070    20.1084   -46.2605 O             1 RES     
    4892 CH2         17.9150    22.5421   -45.8690 CH2           1 RES     
    4893 CH2         17.6019    21.7154   -44.6080 CH2           1 RES     
    4894 CH2         17.0201    22.6373   -43.5203 CH2           1 RES     
    4895 CH2         16.7070    21.8106   -42.2593 CH2           1 RES     
    4896 CH2         16.1252    22.7325   -41.1715 CH2           1 RES     
    4897 CH2         15.8122    21.9058   -39.9105 CH2           1 RES     
    4898 CH2         15.2303    22.8277   -38.8228 CH2           1 RES     
    4899 CH2         14.9173    22.0010   -37.5617 CH2           1 RES     
    4900 CH2         14.3355    22.9229   -36.4740 CH2           1 RES     
    4901 CH2         14.0224    22.0962   -35.2130 CH2           1 RES     
    4902 CH2         13.4406    23.0181   -34.1253 CH2           1 RES     
    4903 CH2         13.1275    22.1914   -32.8642 CH2           1 RES     
    4904 CH2         12.5457    23.1133   -31.7765 CH2           1 RES     
    4905 CH2         12.2327    22.2866   -30.5155 CH2           1 RES     
    4906 CH2         11.6508    23.2085   -29.4278 CH2           1 RES     
    4907 C           11.3520    22.4194   -28.2240 C             1 RES     
    4908 C           14.2308    16.3173   -25.7583 C             1 RES     
    4909 CH2         18.6010    19.2293   -45.1238 CH2           1 RES     
    4910 CH2         17.8499    19.7936   -43.9036 CH2           1 RES     
    4911 CH2         18.0559    18.8600   -42.6963 CH2           1 RES     
    4912 CH2         17.3048    19.4243   -41.4760 CH2           1 RES     
    4913 CH2         17.5107    18.4907   -40.2687 CH2           1 RES     
    4914 CH2         16.7597    19.0550   -39.0485 CH2           1 RES     
    4915 CH2         16.9656    18.1214   -37.8412 CH2           1 RES     
    4916 CH2         16.2146    18.6857   -36.6209 CH2           1 RES     
    4917 CH2         16.4205    17.7521   -35.4136 CH2           1 RES     
    4918 CH2         15.6695    18.3164   -34.1934 CH2           1 RES     
    4919 CH2         15.8754    17.3828   -32.9861 CH2           1 RES     
    4920 CH2         15.1244    17.9471   -31.7658 CH2           1 RES     
    4921 CH2         15.3303    17.0134   -30.5585 CH2           1 RES     
    4922 CH2         14.5793    17.5777   -29.3383 CH2           1 RES     
    4923 CH2         14.7852    16.6441   -28.1310 CH2           1 RES     
    4924 CH2         14.0342    17.2084   -26.9107 CH2           1 RES     
    4925 C           12.6820    -0.3663   -46.7467 C             1 RES     
    4926 O           13.0087    -0.0000   -47.8745 O             1 RES     
    4927 O           12.7507    -1.7837   -46.2605 O             1 RES     
    4928 CH2         12.5037     0.6870   -45.8690 CH2           1 RES     
    4929 CH2         12.1098    -0.1044   -44.6080 CH2           1 RES     
    4930 CH2         11.6227     0.8709   -43.5203 CH2           1 RES     
    4931 CH2         11.2289     0.0795   -42.2593 CH2           1 RES     
    4932 CH2         10.7418     1.0548   -41.1715 CH2           1 RES     
    4933 CH2         10.3479     0.2634   -39.9105 CH2           1 RES     
    4934 CH2          9.8609     1.2387   -38.8228 CH2           1 RES     
    4935 CH2          9.4670     0.4473   -37.5617 CH2           1 RES     
    4936 CH2          8.9799     1.4226   -36.4740 CH2           1 RES     
    4937 CH2          8.5861     0.6312   -35.2130 CH2           1 RES     
    4938 CH2          8.0990     1.6065   -34.1253 CH2           1 RES     
    4939 CH2          7.7051     0.8151   -32.8642 CH2           1 RES     
    4940 CH2          7.2181     1.7904   -31.7765 CH2           1 RES     
    4941 CH2          6.8242     0.9990   -30.5155 CH2           1 RES     
    4942 CH2          6.3371     1.9743   -29.4278 CH2           1 RES     
    4943 C            5.9612     1.2189   -28.2240 C             1 RES     
    4944 C            8.2175    -5.1398   -25.7583 C             1 RES     
    4945 CH2         12.8561    -2.6777   -45.1238 CH2           1 RES     
    4946 CH2         12.1650    -2.0414   -43.9036 CH2           1 RES     
    4947 CH2         12.2769    -2.9909   -42.6963 CH2           1 RES     
    4948 CH2         11.5858    -2.3545   -41.4760 CH2           1 RES     
    4949 CH2         11.6977    -3.3040   -40.2687 CH2           1 RES     
    4950 CH2         11.0066    -2.6677   -39.0485 CH2           1 RES     
    4951 CH2         11.1185    -3.6172   -37.8412 CH2           1 RES     
    4952 CH2         10.4274    -2.9808   -36.6209 CH2           1 RES     
    4953 CH2         10.5394    -3.9303   -35.4136 CH2           1 RES     
    4954 CH2          9.8482    -3.2940   -34.1934 CH2           1 RES     
    4955 CH2          9.9602    -4.2435   -32.9861 CH2           1 RES     
    4956 CH2          9.2691    -3.6071   -31.7658 CH2           1 RES     
    4957 CH2          9.3810    -4.5566   -30.5585 CH2           1 RES     
    4958 CH2          8.6899    -3.9203   -29.3383 CH2           1 RES     
    4959 CH2          8.8018    -4.8698   -28.1310 CH2           1 RES     
    4960 CH2          8.1107    -4.2334   -26.9107 CH2           1 RES     
    4961 C           18.1742    37.9614   -46.7467 C             1 RES     
    4962 O           18.4859    38.3406   -47.8745 O             1 RES     
    4963 O           18.3001    36.5479   -46.2605 O             1 RES     
    4964 CH2         17.9536    39.0066   -45.8690 CH2           1 RES     
    4965 CH2         17.5920    38.2000   -44.6080 CH2           1 RES     
    4966 CH2         17.0660    39.1549   -43.5203 CH2           1 RES     
    4967 CH2         16.7043    38.3483   -42.2593 CH2           1 RES     
    4968 CH2         16.1784    39.3031   -41.1715 CH2           1 RES     
    4969 CH2         15.8167    38.4965   -39.9105 CH2           1 RES     
    4970 CH2         15.2907    39.4514   -38.8228 CH2           1 RES     
    4971 CH2         14.9291    38.6448   -37.5617 CH2           1 RES     
    4972 CH2         14.4031    39.5996   -36.4740 CH2           1 RES     
    4973 CH2         14.0415    38.7930   -35.2130 CH2           1 RES     
    4974 CH2         13.5155    39.7479   -34.1253 CH2           1 RES     
    4975 CH2         13.1538    38.9413   -32.8642 CH2           1 RES     
    4976 CH2         12.6278    39.8962   -31.7765 CH2           1 RES     
    4977 CH2         12.2662    39.0895   -30.5155 CH2           1 RES     
    4978 CH2         11.7402    40.0444   -29.4278 CH2           1 RES     
    4979 C           11.3950    39.2745   -28.2240 C             1 RES     
    4980 C           13.9058    33.0119   -25.7583 C             1 RES     
    4981 CH2         18.4414    35.6589   -45.1238 CH2           1 RES     
    4982 CH2         17.7252    36.2669   -43.9036 CH2           1 RES     
    4983 CH2         17.8753    35.3227   -42.6963 CH2           1 RES     
    4984 CH2         17.1591    35.9306   -41.4760 CH2           1 RES     
    4985 CH2         17.3092    34.9864   -40.2687 CH2           1 RES     
    4986 CH2         16.5930    35.5944   -39.0485 CH2           1 RES     
    4987 CH2         16.7431    34.6502   -37.8412 CH2           1 RES     
    4988 CH2         16.0269    35.2581   -36.6209 CH2           1 RES     
    4989 CH2         16.1770    34.3139   -35.4136 CH2           1 RES     
    4990 CH2         15.4608    34.9219   -34.1934 CH2           1 RES     
    4991 CH2         15.6109    33.9777   -32.9861 CH2           1 RES     
    4992 CH2         14.8947    34.5857   -31.7658 CH2           1 RES     
    4993 CH2         15.0448    33.6415   -30.5585 CH2           1 RES     
    4994 CH2         14.3286    34.2494   -29.3383 CH2           1 RES     
    4995 CH2         14.4787    33.3052   -28.1310 CH2           1 RES     
    4996 CH2         13.7625    33.9132   -26.9107 CH2           1 RES     
    4997 C            7.2178    10.5769   -46.7467 C             1 RES     
    4998 O            7.5315    10.9545   -47.8745 O             1 RES     
    4999 O            7.3360     9.1628   -46.2605 O             1 RES     
    5000 CH2          7.0027    11.6233   -45.8690 CH2           1 RES     
    5001 CH2          6.6368    10.8187   -44.6080 CH2           1 RES     
    5002 CH2          6.1159    11.7763   -43.5203 CH2           1 RES     
    5003 CH2          5.7500    10.9717   -42.2593 CH2           1 RES     
    5004 CH2          5.2291    11.9293   -41.1715 CH2           1 RES     
    5005 CH2          4.8631    11.1247   -39.9105 CH2           1 RES     
    5006 CH2          4.3423    12.0823   -38.8228 CH2           1 RES     
    5007 CH2          3.9763    11.2777   -37.5617 CH2           1 RES     
    5008 CH2          3.4554    12.2353   -36.4740 CH2           1 RES     
    5009 CH2          3.0895    11.4307   -35.2130 CH2           1 RES     
    5010 CH2          2.5686    12.3883   -34.1253 CH2           1 RES     
    5011 CH2          2.2027    11.5837   -32.8642 CH2           1 RES     
    5012 CH2          1.6818    12.5413   -31.7765 CH2           1 RES     
    5013 CH2          1.3158    11.7367   -30.5155 CH2           1 RES     
    5014 CH2          0.7950    12.6943   -29.4278 CH2           1 RES     
    5015 C            0.4456    11.9263   -28.2240 C             1 RES     
    5016 C            2.9229     5.6503   -25.7583 C             1 RES     
    5017 CH2          7.4726     8.2730   -45.1238 CH2           1 RES     
    5018 CH2          6.7597     8.8848   -43.9036 CH2           1 RES     
    5019 CH2          6.9047     7.9398   -42.6963 CH2           1 RES     
    5020 CH2          6.1918     8.5516   -41.4760 CH2           1 RES     
    5021 CH2          6.3368     7.6066   -40.2687 CH2           1 RES     
    5022 CH2          5.6239     8.2184   -39.0485 CH2           1 RES     
    5023 CH2          5.7689     7.2734   -37.8412 CH2           1 RES     
    5024 CH2          5.0560     7.8852   -36.6209 CH2           1 RES     
    5025 CH2          5.2010     6.9402   -35.4136 CH2           1 RES     
    5026 CH2          4.4881     7.5520   -34.1934 CH2           1 RES     
    5027 CH2          4.6331     6.6070   -32.9861 CH2           1 RES     
    5028 CH2          3.9202     7.2188   -31.7658 CH2           1 RES     
    5029 CH2          4.0652     6.2738   -30.5585 CH2           1 RES     
    5030 CH2          3.3523     6.8856   -29.3383 CH2           1 RES     
    5031 CH2          3.4974     5.9406   -28.1310 CH2           1 RES     
    5032 CH2          2.7844     6.5524   -26.9107 CH2           1 RES     
    5033 C           23.7844    32.4062   -46.7467 C             1 RES     
    5034 O           23.9632    32.8634   -47.8745 O             1 RES     
    5035 O           24.3425    31.1015   -46.2605 O             1 RES     
    5036 CH2         23.2505    33.3314   -45.8690 CH2           1 RES     
    5037 CH2         23.1569    32.4524   -44.6080 CH2           1 RES     
    5038 CH2         22.3607    33.1971   -43.5203 CH2           1 RES     
    5039 CH2         22.2670    32.3181   -42.2593 CH2           1 RES     
    5040 CH2         21.4708    33.0627   -41.1715 CH2           1 RES     
    5041 CH2         21.3772    32.1837   -39.9105 CH2           1 RES     
    5042 CH2         20.5810    32.9284   -38.8228 CH2           1 RES     
    5043 CH2         20.4874    32.0494   -37.5617 CH2           1 RES     
    5044 CH2         19.6912    32.7940   -36.4740 CH2           1 RES     
    5045 CH2         19.5975    31.9150   -35.2130 CH2           1 RES     
    5046 CH2         18.8013    32.6597   -34.1253 CH2           1 RES     
    5047 CH2         18.7077    31.7807   -32.8642 CH2           1 RES     
    5048 CH2         17.9115    32.5253   -31.7765 CH2           1 RES     
    5049 CH2         17.8178    31.6463   -30.5155 CH2           1 RES     
    5050 CH2         17.0216    32.3910   -29.4278 CH2           1 RES     
    5051 C           16.9323    31.5519   -28.2240 C             1 RES     
    5052 C           21.2616    26.3769   -25.7583 C             1 RES     
    5053 CH2         24.7525    30.3001   -45.1238 CH2           1 RES     
    5054 CH2         23.8831    30.6560   -43.9036 CH2           1 RES     
    5055 CH2         24.3187    29.8049   -42.6963 CH2           1 RES     
    5056 CH2         23.4492    30.1607   -41.4760 CH2           1 RES     
    5057 CH2         23.8848    29.3096   -40.2687 CH2           1 RES     
    5058 CH2         23.0153    29.6655   -39.0485 CH2           1 RES     
    5059 CH2         23.4509    28.8144   -37.8412 CH2           1 RES     
    5060 CH2         22.5814    29.1702   -36.6209 CH2           1 RES     
    5061 CH2         23.0170    28.3191   -35.4136 CH2           1 RES     
    5062 CH2         22.1475    28.6750   -34.1934 CH2           1 RES     
    5063 CH2         22.5831    27.8239   -32.9861 CH2           1 RES     
    5064 CH2         21.7136    28.1798   -31.7658 CH2           1 RES     
    5065 CH2         22.1492    27.3287   -30.5585 CH2           1 RES     
    5066 CH2         21.2797    27.6845   -29.3383 CH2           1 RES     
    5067 CH2         21.7153    26.8334   -28.1310 CH2           1 RES     
    5068 CH2         20.8458    27.1893   -26.9107 CH2           1 RES     
    5069 C           45.6604    32.4205   -46.7467 C             1 RES     
    5070 O           45.8721    32.8634   -47.8745 O             1 RES     
    5071 O           46.1216    31.0784   -46.2605 O             1 RES     
    5072 CH2         45.1955    33.3823   -45.8690 CH2           1 RES     
    5073 CH2         45.0379    32.5124   -44.6080 CH2           1 RES     
    5074 CH2         44.2983    33.3133   -43.5203 CH2           1 RES     
    5075 CH2         44.1406    32.4435   -42.2593 CH2           1 RES     
    5076 CH2         43.4010    33.2443   -41.1715 CH2           1 RES     
    5077 CH2         43.2434    32.3745   -39.9105 CH2           1 RES     
    5078 CH2         42.5037    33.1753   -38.8228 CH2           1 RES     
    5079 CH2         42.3461    32.3055   -37.5617 CH2           1 RES     
    5080 CH2         41.6064    33.1063   -36.4740 CH2           1 RES     
    5081 CH2         41.4488    32.2365   -35.2130 CH2           1 RES     
    5082 CH2         40.7091    33.0374   -34.1253 CH2           1 RES     
    5083 CH2         40.5515    32.1675   -32.8642 CH2           1 RES     
    5084 CH2         39.8119    32.9684   -31.7765 CH2           1 RES     
    5085 CH2         39.6542    32.0986   -30.5155 CH2           1 RES     
    5086 CH2         38.9146    32.8994   -29.4278 CH2           1 RES     
    5087 C           38.7641    32.0691   -28.2240 C             1 RES     
    5088 C           42.7038    26.5916   -25.7583 C             1 RES     
    5089 CH2         46.4721    30.2493   -45.1238 CH2           1 RES     
    5090 CH2         45.6309    30.6677   -43.9036 CH2           1 RES     
    5091 CH2         46.0031    29.7871   -42.6963 CH2           1 RES     
    5092 CH2         45.1620    30.2055   -41.4760 CH2           1 RES     
    5093 CH2         45.5342    29.3248   -40.2687 CH2           1 RES     
    5094 CH2         44.6931    29.7433   -39.0485 CH2           1 RES     
    5095 CH2         45.0653    28.8626   -37.8412 CH2           1 RES     
    5096 CH2         44.2242    29.2811   -36.6209 CH2           1 RES     
    5097 CH2         44.5964    28.4004   -35.4136 CH2           1 RES     
    5098 CH2         43.7553    28.8189   -34.1934 CH2           1 RES     
    5099 CH2         44.1274    27.9382   -32.9861 CH2           1 RES     
    5100 CH2         43.2863    28.3566   -31.7658 CH2           1 RES     
    5101 CH2         43.6585    27.4760   -30.5585 CH2           1 RES     
    5102 CH2         42.8174    27.8944   -29.3383 CH2           1 RES     
    5103 CH2         43.1896    27.0138   -28.1310 CH2           1 RES     
    5104 CH2         42.3485    27.4322   -26.9107 CH2           1 RES     
    5105 C           29.2547    21.4545   -46.7467 C             1 RES     
    5106 O           29.4404    21.9089   -47.8745 O             1 RES     
    5107 O           29.7926    20.1414   -46.2605 O             1 RES     
    5108 CH2         28.7350    22.3879   -45.8690 CH2           1 RES     
    5109 CH2         28.6279    21.5104   -44.6080 CH2           1 RES     
    5110 CH2         27.8432    22.2672   -43.5203 CH2           1 RES     
    5111 CH2         27.7361    21.3897   -42.2593 CH2           1 RES     
    5112 CH2         26.9514    22.1465   -41.1715 CH2           1 RES     
    5113 CH2         26.8443    21.2691   -39.9105 CH2           1 RES     
    5114 CH2         26.0596    22.0258   -38.8228 CH2           1 RES     
    5115 CH2         25.9525    21.1484   -37.5617 CH2           1 RES     
    5116 CH2         25.1678    21.9052   -36.4740 CH2           1 RES     
    5117 CH2         25.0607    21.0277   -35.2130 CH2           1 RES     
    5118 CH2         24.2760    21.7845   -34.1253 CH2           1 RES     
    5119 CH2         24.1689    20.9070   -32.8642 CH2           1 RES     
    5120 CH2         23.3842    21.6638   -31.7765 CH2           1 RES     
    5121 CH2         23.2771    20.7863   -30.5155 CH2           1 RES     
    5122 CH2         22.4924    21.5431   -29.4278 CH2           1 RES     
    5123 C           22.3902    20.7055   -28.2240 C             1 RES     
    5124 C           26.6395    15.4647   -25.7583 C             1 RES     
    5125 CH2         30.1903    19.3338   -45.1238 CH2           1 RES     
    5126 CH2         29.3265    19.7030   -43.9036 CH2           1 RES     
    5127 CH2         29.7489    18.8453   -42.6963 CH2           1 RES     
    5128 CH2         28.8850    19.2145   -41.4760 CH2           1 RES     
    5129 CH2         29.3074    18.3568   -40.2687 CH2           1 RES     
    5130 CH2         28.4436    18.7260   -39.0485 CH2           1 RES     
    5131 CH2         28.8660    17.8683   -37.8412 CH2           1 RES     
    5132 CH2         28.0021    18.2374   -36.6209 CH2           1 RES     
    5133 CH2         28.4245    17.3798   -35.4136 CH2           1 RES     
    5134 CH2         27.5607    17.7489   -34.1934 CH2           1 RES     
    5135 CH2         27.9831    16.8912   -32.9861 CH2           1 RES     
    5136 CH2         27.1192    17.2604   -31.7658 CH2           1 RES     
    5137 CH2         27.5416    16.4027   -30.5585 CH2           1 RES     
    5138 CH2         26.6778    16.7719   -29.3383 CH2           1 RES     
    5139 CH2         27.1002    15.9142   -28.1310 CH2           1 RES     
    5140 CH2         26.2363    16.2834   -26.9107 CH2           1 RES     
    5141 C            7.3048    26.9508   -46.7467 C             1 RES     
    5142 O            7.5315    27.3861   -47.8745 O             1 RES     
    5143 O            7.7196    25.5937   -46.2605 O             1 RES     
    5144 CH2          6.8732    27.9280   -45.8690 CH2           1 RES     
    5145 CH2          6.6858    27.0641   -44.6080 CH2           1 RES     
    5146 CH2          5.9740    27.8898   -43.5203 CH2           1 RES     
    5147 CH2          5.7867    27.0259   -42.2593 CH2           1 RES     
    5148 CH2          5.0749    27.8517   -41.1715 CH2           1 RES     
    5149 CH2          4.8875    26.9878   -39.9105 CH2           1 RES     
    5150 CH2          4.1758    27.8135   -38.8228 CH2           1 RES     
    5151 CH2          3.9884    26.9496   -37.5617 CH2           1 RES     
    5152 CH2          3.2767    27.7754   -36.4740 CH2           1 RES     
    5153 CH2          3.0893    26.9115   -35.2130 CH2           1 RES     
    5154 CH2          2.3776    27.7372   -34.1253 CH2           1 RES     
    5155 CH2          2.1902    26.8733   -32.8642 CH2           1 RES     
    5156 CH2          1.4785    27.6991   -31.7765 CH2           1 RES     
    5157 CH2          1.2911    26.8352   -30.5155 CH2           1 RES     
    5158 CH2          0.5793    27.6610   -29.4278 CH2           1 RES     
    5159 C            0.4005    26.8363   -28.2240 C             1 RES     
    5160 C            4.1498    21.2268   -25.7583 C             1 RES     
    5161 CH2          8.0414    24.7530   -45.1238 CH2           1 RES     
    5162 CH2          7.2151    25.2000   -43.9036 CH2           1 RES     
    5163 CH2          7.5569    24.3071   -42.6963 CH2           1 RES     
    5164 CH2          6.7306    24.7542   -41.4760 CH2           1 RES     
    5165 CH2          7.0724    23.8613   -40.2687 CH2           1 RES     
    5166 CH2          6.2461    24.3084   -39.0485 CH2           1 RES     
    5167 CH2          6.5879    23.4155   -37.8412 CH2           1 RES     
    5168 CH2          5.7616    23.8625   -36.6209 CH2           1 RES     
    5169 CH2          6.1034    22.9696   -35.4136 CH2           1 RES     
    5170 CH2          5.2771    23.4167   -34.1934 CH2           1 RES     
    5171 CH2          5.6188    22.5238   -32.9861 CH2           1 RES     
    5172 CH2          4.7926    22.9708   -31.7658 CH2           1 RES     
    5173 CH2          5.1343    22.0779   -30.5585 CH2           1 RES     
    5174 CH2          4.3081    22.5250   -29.3383 CH2           1 RES     
    5175 CH2          4.6498    21.6321   -28.1310 CH2           1 RES     
    5176 CH2          3.8236    22.0791   -26.9107 CH2           1 RES     
    5177 C            7.2893    16.0047   -46.7467 C             1 RES     
    5178 O            7.5315    16.4317   -47.8745 O             1 RES     
    5179 O            7.6552    14.6337   -46.2605 O             1 RES     
    5180 CH2          6.8930    16.9968   -45.8690 CH2           1 RES     
    5181 CH2          6.6748    16.1401   -44.6080 CH2           1 RES     
    5182 CH2          5.9931    16.9909   -43.5203 CH2           1 RES     
    5183 CH2          5.7749    16.1343   -42.2593 CH2           1 RES     
    5184 CH2          5.0932    16.9850   -41.1715 CH2           1 RES     
    5185 CH2          4.8750    16.1284   -39.9105 CH2           1 RES     
    5186 CH2          4.1933    16.9791   -38.8228 CH2           1 RES     
    5187 CH2          3.9751    16.1225   -37.5617 CH2           1 RES     
    5188 CH2          3.2934    16.9732   -36.4740 CH2           1 RES     
    5189 CH2          3.0752    16.1166   -35.2130 CH2           1 RES     
    5190 CH2          2.3935    16.9674   -34.1253 CH2           1 RES     
    5191 CH2          2.1752    16.1107   -32.8642 CH2           1 RES     
    5192 CH2          1.4936    16.9615   -31.7765 CH2           1 RES     
    5193 CH2          1.2753    16.1049   -30.5155 CH2           1 RES     
    5194 CH2          0.5937    16.9556   -29.4278 CH2           1 RES     
    5195 C            0.3854    16.1379   -28.2240 C             1 RES     
    5196 C            3.9311    10.3976   -25.7583 C             1 RES     
    5197 CH2          7.9467    13.7820   -45.1238 CH2           1 RES     
    5198 CH2          7.1370    14.2583   -43.9036 CH2           1 RES     
    5199 CH2          7.4465    13.3538   -42.6963 CH2           1 RES     
    5200 CH2          6.6368    13.8302   -41.4760 CH2           1 RES     
    5201 CH2          6.9463    12.9256   -40.2687 CH2           1 RES     
    5202 CH2          6.1366    13.4020   -39.0485 CH2           1 RES     
    5203 CH2          6.4461    12.4974   -37.8412 CH2           1 RES     
    5204 CH2          5.6364    12.9738   -36.6209 CH2           1 RES     
    5205 CH2          5.9459    12.0692   -35.4136 CH2           1 RES     
    5206 CH2          5.1362    12.5456   -34.1934 CH2           1 RES     
    5207 CH2          5.4457    11.6410   -32.9861 CH2           1 RES     
    5208 CH2          4.6360    12.1174   -31.7658 CH2           1 RES     
    5209 CH2          4.9456    11.2128   -30.5585 CH2           1 RES     
    5210 CH2          4.1359    11.6892   -29.3383 CH2           1 RES     
    5211 CH2          4.4454    10.7847   -28.1310 CH2           1 RES     
    5212 CH2          3.6357    11.2611   -26.9107 CH2           1 RES     
    5213 C           18.2025    10.5537   -46.7467 C             1 RES     
    5214 O           18.4859    10.9545   -47.8745 O             1 RES     
    5215 O           18.4303     9.1530   -46.2605 O             1 RES     
    5216 CH2         17.9068    11.5802   -45.8690 CH2           1 RES     
    5217 CH2         17.6045    10.7495   -44.6080 CH2           1 RES     
    5218 CH2         17.0108    11.6638   -43.5203 CH2           1 RES     
    5219 CH2         16.7085    10.8331   -42.2593 CH2           1 RES     
    5220 CH2         16.1147    11.7474   -41.1715 CH2           1 RES     
    5221 CH2         15.8124    10.9167   -39.9105 CH2           1 RES     
    5222 CH2         15.2187    11.8310   -38.8228 CH2           1 RES     
    5223 CH2         14.9164    11.0003   -37.5617 CH2           1 RES     
    5224 CH2         14.3227    11.9146   -36.4740 CH2           1 RES     
    5225 CH2         14.0204    11.0839   -35.2130 CH2           1 RES     
    5226 CH2         13.4266    11.9982   -34.1253 CH2           1 RES     
    5227 CH2         13.1243    11.1676   -32.8642 CH2           1 RES     
    5228 CH2         12.5306    12.0818   -31.7765 CH2           1 RES     
    5229 CH2         12.2283    11.2512   -30.5155 CH2           1 RES     
    5230 CH2         11.6346    12.1655   -29.4278 CH2           1 RES     
    5231 C           11.3460    11.3725   -28.2240 C             1 RES     
    5232 C           14.3036     5.3082   -25.7583 C             1 RES     
    5233 CH2         18.6357     8.2766   -45.1238 CH2           1 RES     
    5234 CH2         17.8773     8.8311   -43.9036 CH2           1 RES     
    5235 CH2         18.0954     7.9002   -42.6963 CH2           1 RES     
    5236 CH2         17.3370     8.4548   -41.4760 CH2           1 RES     
    5237 CH2         17.5551     7.5239   -40.2687 CH2           1 RES     
    5238 CH2         16.7968     8.0784   -39.0485 CH2           1 RES     
    5239 CH2         17.0148     7.1476   -37.8412 CH2           1 RES     
    5240 CH2         16.2565     7.7021   -36.6209 CH2           1 RES     
    5241 CH2         16.4746     6.7712   -35.4136 CH2           1 RES     
    5242 CH2         15.7162     7.3257   -34.1934 CH2           1 RES     
    5243 CH2         15.9343     6.3949   -32.9861 CH2           1 RES     
    5244 CH2         15.1760     6.9494   -31.7658 CH2           1 RES     
    5245 CH2         15.3940     6.0185   -30.5585 CH2           1 RES     
    5246 CH2         14.6357     6.5731   -29.3383 CH2           1 RES     
    5247 CH2         14.8537     5.6422   -28.1310 CH2           1 RES     
    5248 CH2         14.0954     6.1967   -26.9107 CH2           1 RES     
    5249 O           15.1400    21.5940     0.6940 O             1 RES     
    5250 H           15.0860    22.4800     1.1520 H             1 RES     
    5251 H           14.2170    21.2410     0.5410 H             1 RES     
    5252 O            9.6100     0.8650    13.2470 O             1 RES     
    5253 H           10.4100     0.4140    12.8530 H             1 RES     
    5254 H            9.5560     0.6580    14.2240 H             1 RES     
    5255 O            9.3750    11.9250    11.2570 O             1 RES     
    5256 H            8.7350    12.1340    11.9960 H             1 RES     
    5257 H           10.0470    12.6610    11.1800 H             1 RES     
    5258 O           -1.2550     8.7700     7.5080 O             1 RES     
    5259 H           -0.7040     9.6040     7.5070 H             1 RES     
    5260 H           -0.6610     7.9770     7.6420 H             1 RES     
    5261 O            5.4770    28.9100     6.1480 O             1 RES     
    5262 H            6.0770    29.6860     6.3380 H             1 RES     
    5263 H            4.8160    29.1630     5.4420 H             1 RES     
    5264 O           15.3520    26.6990    11.8880 O             1 RES     
    5265 H           14.7460    26.1250    12.4370 H             1 RES     
    5266 H           15.2850    26.4320    10.9260 H             1 RES     
    5267 O           51.3450    -1.4810    10.2660 O             1 RES     
    5268 H           51.7560    -1.6650     9.3740 H             1 RES     
    5269 H           51.6460    -0.5860    10.5950 H             1 RES     
    5270 O           34.6290    40.3550     2.4950 O             1 RES     
    5271 H           35.2660    39.5840     2.5070 H             1 RES     
    5272 H           33.9930    40.2500     1.7300 H             1 RES     
    5273 O           21.6280     0.6770    12.3910 O             1 RES     
    5274 H           22.5960     0.9150    12.3190 H             1 RES     
    5275 H           21.1240     1.4430    12.7910 H             1 RES     
    5276 O           -5.0170    37.2330     8.2240 O             1 RES     
    5277 H           -5.3360    37.1650     7.2800 H             1 RES     
    5278 H           -5.4900    36.5540     8.7860 H             1 RES     
    5279 O           12.7050    18.2230     6.5290 O             1 RES     
    5280 H           13.5200    17.6450     6.5270 H             1 RES     
    5281 H           11.9150    17.6870     6.2300 H             1 RES     
    5282 O           47.3830     2.8900    11.1510 O             1 RES     
    5283 H           47.5080     3.7820    11.5840 H             1 RES     
    5284 H           48.0100     2.2280    11.5620 H             1 RES     
    5285 O            6.8920    20.0700    11.0980 O             1 RES     
    5286 H            7.4800    19.2740    11.2360 H             1 RES     
    5287 H            6.5660    20.0830    10.1530 H             1 RES     
    5288 O           25.7100    -2.5480     3.5900 O             1 RES     
    5289 H           25.0020    -3.2410     3.7200 H             1 RES     
    5290 H           26.5600    -2.9890     3.2990 H             1 RES     
    5291 O           40.1000    36.4240     7.5480 O             1 RES     
    5292 H           41.0060    36.0030     7.5890 H             1 RES     
    5293 H           40.1440    37.2590     6.9980 H             1 RES     
    5294 O           40.4430    36.6530     4.7070 O             1 RES     
    5295 H           41.0310    35.8500     4.6190 H             1 RES     
    5296 H           40.9950    37.4450     4.9670 H             1 RES     
    5297 O           43.2940    27.5870     4.1480 O             1 RES     
    5298 H           44.1170    28.1380     4.0140 H             1 RES     
    5299 H           43.5530    26.6680     4.4450 H             1 RES     
    5300 O           17.9150    30.9620    10.9170 O             1 RES     
    5301 H           17.5350    30.5850    11.7610 H             1 RES     
    5302 H           18.5310    30.2940    10.5000 H             1 RES     
    5303 O           10.6420    26.6660     3.0610 O             1 RES     
    5304 H           10.5790    27.4800     3.6370 H             1 RES     
    5305 H           11.6020    26.4050     2.9540 H             1 RES     
    5306 O           20.8570    38.4920     7.0380 O             1 RES     
    5307 H           20.0920    37.8490     7.0220 H             1 RES     
    5308 H           20.9320    38.9440     6.1490 H             1 RES     
    5309 O           37.8830    39.9200     4.9100 O             1 RES     
    5310 H           37.2950    39.1140     4.9650 H             1 RES     
    5311 H           38.8070    39.6800     5.2100 H             1 RES     
    5312 O           21.2370    27.1480     1.8630 O             1 RES     
    5313 H           21.6840    27.8800     1.3490 H             1 RES     
    5314 H           21.8200    26.3350     1.8630 H             1 RES     
    5315 O           11.3750    27.4130     8.0060 O             1 RES     
    5316 H           10.4180    27.6130     8.2170 H             1 RES     
    5317 H           11.4210    26.8060     7.2120 H             1 RES     
    5318 O           32.8000     0.3100    14.0590 O             1 RES     
    5319 H           32.7260    -0.6370    13.7510 H             1 RES     
    5320 H           33.3720     0.8260    13.4200 H             1 RES     
    5321 O           -2.0810    39.6330    10.8340 O             1 RES     
    5322 H           -1.9710    39.4700     9.8540 H             1 RES     
    5323 H           -3.0250    39.9060    11.0240 H             1 RES     
    5324 O           30.9940     3.8750     9.4520 O             1 RES     
    5325 H           30.6580     4.1450     8.5500 H             1 RES     
    5326 H           31.4340     4.6580     9.8920 H             1 RES     
    5327 O            5.7990    28.3500     9.9800 O             1 RES     
    5328 H            6.1640    29.2270    10.2920 H             1 RES     
    5329 H            5.3850    28.4630     9.0760 H             1 RES     
    5330 O           11.5230    -5.2210     1.3940 O             1 RES     
    5331 H           11.6330    -6.2030     1.5370 H             1 RES     
    5332 H           10.5510    -5.0050     1.2910 H             1 RES     
    5333 O           26.2340     1.3890     1.1590 O             1 RES     
    5334 H           27.1870     1.5380     1.4180 H             1 RES     
    5335 H           25.8480     0.6520     1.7150 H             1 RES     
    5336 O           37.5330    15.8540    12.7980 O             1 RES     
    5337 H           38.0520    15.1220    12.3590 H             1 RES     
    5338 H           38.1550    16.4400    13.3170 H             1 RES     
    5339 O           42.4490    22.6920     0.8090 O             1 RES     
    5340 H           41.4900    22.9300     0.9620 H             1 RES     
    5341 H           42.5670    21.7030     0.9030 H             1 RES     
    5342 O           14.6560    11.9680     3.8840 O             1 RES     
    5343 H           13.8690    12.4600     4.2550 H             1 RES     
    5344 H           15.5000    12.4090     4.1880 H             1 RES     
    5345 O           33.7370    -1.2130     8.8080 O             1 RES     
    5346 H           34.3980    -1.5050     9.4980 H             1 RES     
    5347 H           33.0070    -0.6870     9.2460 H             1 RES     
    5348 O           38.8960    -0.2670     0.9710 O             1 RES     
    5349 H           38.7500     0.7210     0.9380 H             1 RES     
    5350 H           39.8290    -0.4560     1.2800 H             1 RES     
    5351 O           12.5450    37.2310     8.3060 O             1 RES     
    5352 H           11.5750    36.9980     8.3680 H             1 RES     
    5353 H           12.7110    38.0970     8.7780 H             1 RES     
    5354 O           -1.9220    24.0390    10.3640 O             1 RES     
    5355 H           -2.3120    23.1630    10.0820 H             1 RES     
    5356 H           -1.0010    24.1330     9.9860 H             1 RES     
    5357 O            2.1570     9.6880     8.5470 O             1 RES     
    5358 H            2.0450    10.3080     7.7710 H             1 RES     
    5359 H            1.2720     9.2840     8.7810 H             1 RES     
    5360 O           -1.9060     9.9780    12.8140 O             1 RES     
    5361 H           -1.6600    10.6560    13.5070 H             1 RES     
    5362 H           -2.5750     9.3390    13.1950 H             1 RES     
    5363 O           29.1970    -3.8330     0.5570 O             1 RES     
    5364 H           29.9180    -4.5250     0.5360 H             1 RES     
    5365 H           28.3030    -4.2810     0.5650 H             1 RES     
    5366 O           18.2280    37.3840    10.7040 O             1 RES     
    5367 H           18.5530    37.2340     9.7710 H             1 RES     
    5368 H           18.6270    36.6960    11.3110 H             1 RES     
    5369 O           -3.6010    -3.3420    12.4500 O             1 RES     
    5370 H           -4.2160    -3.8150    13.0800 H             1 RES     
    5371 H           -2.7570    -3.8690    12.3480 H             1 RES     
    5372 O           37.0940     1.7150    12.6910 O             1 RES     
    5373 H           36.3000     1.4610    12.1390 H             1 RES     
    5374 H           37.7990     1.0100    12.6080 H             1 RES     
    5375 O           47.3790    24.5330    13.5160 O             1 RES     
    5376 H           47.8580    23.8230    14.0300 H             1 RES     
    5377 H           46.5610    24.8140    14.0190 H             1 RES     
    5378 O           35.5280    -6.8550     5.3530 O             1 RES     
    5379 H           36.1720    -6.2510     5.8220 H             1 RES     
    5380 H           34.7650    -6.3170     4.9940 H             1 RES     
    5381 O           15.7910    27.2520    14.0110 O             1 RES     
    5382 H           14.8300    27.4220    14.2240 H             1 RES     
    5383 H           16.0170    26.3010    14.2240 H             1 RES     
    5384 O           18.6200    15.6570     8.0310 O             1 RES     
    5385 H           18.0720    15.8380     7.2160 H             1 RES     
    5386 H           18.0270    15.6430     8.8360 H             1 RES     
    5387 O           -4.1400    19.1740     0.8590 O             1 RES     
    5388 H           -4.8670    19.8150     0.6130 H             1 RES     
    5389 H           -4.3790    18.2590     0.5340 H             1 RES     
    5390 O           39.0220    27.7870     1.3180 O             1 RES     
    5391 H           39.0580    27.2290     2.1460 H             1 RES     
    5392 H           39.3160    27.2390     0.5340 H             1 RES     
    5393 O           11.4960    24.7390    11.4410 O             1 RES     
    5394 H           12.1640    25.0010    12.1370 H             1 RES     
    5395 H           11.2940    25.5260    10.8580 H             1 RES     
    5396 O           23.8050     3.8660     8.6160 O             1 RES     
    5397 H           23.2990     4.5750     8.1260 H             1 RES     
    5398 H           24.2690     3.2730     7.9590 H             1 RES     
    5399 O           50.0960    37.5570     2.4610 O             1 RES     
    5400 H           49.5130    36.7470     2.4140 H             1 RES     
    5401 H           50.9990    37.3000     2.8070 H             1 RES     
    5402 O            2.0120    18.5340    12.6610 O             1 RES     
    5403 H            1.2510    17.8870    12.6470 H             1 RES     
    5404 H            2.8760    18.0360    12.5860 H             1 RES     
    5405 O            8.9140     5.3790     3.8410 O             1 RES     
    5406 H            9.2640     4.4620     3.6560 H             1 RES     
    5407 H            9.6770     6.0240     3.8940 H             1 RES     
    5408 O           24.2760     7.2800     8.8380 O             1 RES     
    5409 H           24.0530     6.4240     9.3030 H             1 RES     
    5410 H           25.2080     7.5560     9.0750 H             1 RES     
    5411 O           49.2840     0.3780     8.9790 O             1 RES     
    5412 H           50.1490    -0.1210     9.0140 H             1 RES     
    5413 H           49.4620     1.3410     8.7780 H             1 RES     
    5414 O            4.5430    33.5000     5.2180 O             1 RES     
    5415 H            4.8340    32.8500     5.9190 H             1 RES     
    5416 H            5.1880    33.4760     4.4530 H             1 RES     
    5417 O            9.2550    32.6910     6.7000 O             1 RES     
    5418 H            8.8500    31.7830     6.6020 H             1 RES     
    5419 H           10.2450    32.6310     6.5720 H             1 RES     
    5420 O            3.6770    24.1470     5.0190 O             1 RES     
    5421 H            2.7600    23.9830     5.3810 H             1 RES     
    5422 H            4.0960    23.2750     4.7630 H             1 RES     
    5423 O            2.4240    24.0580     8.5810 O             1 RES     
    5424 H            2.8970    24.7450     9.1320 H             1 RES     
    5425 H            1.9900    23.3880     9.1830 H             1 RES     
    5426 O           36.7690    -3.7080     6.6320 O             1 RES     
    5427 H           37.2900    -4.3770     6.1030 H             1 RES     
    5428 H           37.3450    -3.3350     7.3590 H             1 RES     
    5429 O           29.2570    39.5940     5.2290 O             1 RES     
    5430 H           29.0430    40.3570     5.8370 H             1 RES     
    5431 H           30.0300    39.8390     4.6440 H             1 RES     
    5432 O           38.3160     4.3550     1.3320 O             1 RES     
    5433 H           37.8160     4.6040     2.1610 H             1 RES     
    5434 H           37.8890     4.7900     0.5400 H             1 RES     
    5435 O            6.0130    -1.5030    14.1950 O             1 RES     
    5436 H            6.8840    -1.9530    14.0010 H             1 RES     
    5437 H            5.2830    -2.1870    14.2240 H             1 RES     
    5438 O           11.9800    10.7920     1.2450 O             1 RES     
    5439 H           12.4210    11.0840     2.0940 H             1 RES     
    5440 H           11.7210     9.8280     1.3180 H             1 RES     
    5441 O           31.0620    10.0800     5.3710 O             1 RES     
    5442 H           30.2400     9.5130     5.4110 H             1 RES     
    5443 H           31.6300     9.9010     6.1740 H             1 RES     
    5444 O           27.5280     7.0040     5.8590 O             1 RES     
    5445 H           26.9620     7.6810     6.3280 H             1 RES     
    5446 H           28.4940     7.2150     6.0090 H             1 RES     
    5447 O           14.9970     5.7490    11.6560 O             1 RES     
    5448 H           14.1360     6.2290    11.8200 H             1 RES     
    5449 H           15.7370     6.4140    11.5600 H             1 RES     
    5450 O           29.3020    -4.1860    10.5030 O             1 RES     
    5451 H           29.0810    -4.3470     9.5410 H             1 RES     
    5452 H           28.9820    -4.9580    11.0520 H             1 RES     
    5453 O           20.4110    -4.1480     2.8520 O             1 RES     
    5454 H           20.0890    -4.8330     3.5040 H             1 RES     
    5455 H           19.9570    -3.2760     3.0320 H             1 RES     
    5456 O           -5.5840    38.6570    13.6150 O             1 RES     
    5457 H           -5.2060    39.5810    13.5640 H             1 RES     
    5458 H           -6.0920    38.4580    12.7760 H             1 RES     
    5459 O           13.6100    17.0290     0.5420 O             1 RES     
    5460 H           13.9970    17.9500     0.5340 H             1 RES     
    5461 H           12.6140    17.0860     0.6060 H             1 RES     
    5462 O           -1.6690    22.3980    12.3130 O             1 RES     
    5463 H           -0.7740    22.7280    12.0150 H             1 RES     
    5464 H           -1.5520    21.7490    13.0650 H             1 RES     
    5465 O           25.9270    15.5700     2.3200 O             1 RES     
    5466 H           26.6720    15.9920     2.8350 H             1 RES     
    5467 H           25.1430    16.1900     2.2990 H             1 RES     
    5468 O           52.0490    25.7000     6.1870 O             1 RES     
    5469 H           51.2300    25.1980     5.9120 H             1 RES     
    5470 H           51.7840    26.5860     6.5680 H             1 RES     
    5471 O            6.7040    35.5730     4.8890 O             1 RES     
    5472 H            6.6140    35.1050     4.0100 H             1 RES     
    5473 H            6.0840    35.1570     5.5540 H             1 RES     
    5474 O           46.7580    26.7970     8.1720 O             1 RES     
    5475 H           46.8400    27.6730     7.7000 H             1 RES     
    5476 H           47.5100    26.6980     8.8240 H             1 RES     
    5477 O           18.6810    32.1570    12.7900 O             1 RES     
    5478 H           19.3900    31.4540    12.7410 H             1 RES     
    5479 H           19.1080    33.0620    12.7920 H             1 RES     
    5480 O           -0.0410    26.9410    11.6360 O             1 RES     
    5481 H            0.7790    26.5870    12.0850 H             1 RES     
    5482 H           -0.8400    26.4220    11.9420 H             1 RES     
    5483 O           21.6140    31.8040     4.5060 O             1 RES     
    5484 H           20.6620    32.0700     4.3600 H             1 RES     
    5485 H           22.2140    32.5710     4.2790 H             1 RES     
    5486 O           -2.9340     3.8440     5.7400 O             1 RES     
    5487 H           -3.9300     3.8280     5.8240 H             1 RES     
    5488 H           -2.6220     2.9950     5.3130 H             1 RES     
    5489 O           24.4940    15.3590     7.2350 O             1 RES     
    5490 H           25.3610    14.9160     7.0090 H             1 RES     
    5491 H           24.6210    15.9610     8.0230 H             1 RES     
    5492 O            9.8590    35.4790    10.4990 O             1 RES     
    5493 H           10.6500    35.6670    11.0800 H             1 RES     
    5494 H            9.0560    35.3120    11.0720 H             1 RES     
    5495 O           32.9320    24.1470     3.0150 O             1 RES     
    5496 H           32.8730    23.2260     3.4000 H             1 RES     
    5497 H           32.1150    24.6660     3.2650 H             1 RES     
    5498 O           29.7930    24.1020    13.7870 O             1 RES     
    5499 H           30.4190    23.3440    13.6110 H             1 RES     
    5500 H           28.8590    23.8240    13.5610 H             1 RES     
    5501 O            7.7660    -6.0840     2.8940 O             1 RES     
    5502 H            7.4580    -5.6650     2.0400 H             1 RES     
    5503 H            7.7100    -7.0790     2.8160 H             1 RES     
    5504 O           34.7410    13.5340     0.8770 O             1 RES     
    5505 H           34.9370    12.5580     0.9600 H             1 RES     
    5506 H           33.8100    13.6590     0.5340 H             1 RES     
    5507 O           31.4560     2.5180    11.7710 O             1 RES     
    5508 H           30.8840     1.6980    11.7620 H             1 RES     
    5509 H           32.4140     2.2570    11.8870 H             1 RES     
    5510 O           40.5220    37.6380    10.4410 O             1 RES     
    5511 H           40.0580    38.5030    10.6290 H             1 RES     
    5512 H           41.4910    37.8120    10.2640 H             1 RES     
    5513 O            0.0010    33.6450     6.8170 O             1 RES     
    5514 H            0.8000    34.2440     6.7780 H             1 RES     
    5515 H           -0.1240    33.3160     7.7540 H             1 RES     
    5516 O           -5.0530     0.8450     6.9220 O             1 RES     
    5517 H           -5.0070     1.7730     6.5530 H             1 RES     
    5518 H           -4.2570     0.3230     6.6140 H             1 RES     
    5519 O           30.5430    10.6830     8.1510 O             1 RES     
    5520 H           31.3650    10.1720     8.4010 H             1 RES     
    5521 H           29.7330    10.1840     8.4600 H             1 RES     
    5522 O           38.5240    35.0050     8.9110 O             1 RES     
    5523 H           37.8180    34.6000     9.4900 H             1 RES     
    5524 H           39.4260    34.7250     9.2390 H             1 RES     
    5525 O            7.4440    29.0300     4.7440 O             1 RES     
    5526 H            8.1530    28.5720     5.2790 H             1 RES     
    5527 H            7.8630    29.7280     4.1630 H             1 RES     
    5528 O           45.2540    12.1520    12.2640 O             1 RES     
    5529 H           45.0870    13.0140    12.7400 H             1 RES     
    5530 H           45.4600    12.3360    11.3020 H             1 RES     
    5531 O           19.8090    23.0280     6.2790 O             1 RES     
    5532 H           20.1660    23.8110     5.7700 H             1 RES     
    5533 H           20.5510    22.5970     6.7920 H             1 RES     
    5534 O           28.6760    21.2550     3.6850 O             1 RES     
    5535 H           29.5880    21.3760     4.0780 H             1 RES     
    5536 H           28.5710    21.8560     2.8930 H             1 RES     
    5537 O           23.7650    38.1290    11.2100 O             1 RES     
    5538 H           22.9100    38.0070    11.7120 H             1 RES     
    5539 H           23.8050    37.4750    10.4540 H             1 RES     
    5540 O            2.0780    -6.9930    11.8800 O             1 RES     
    5541 H            1.4660    -7.7080    12.2160 H             1 RES     
    5542 H            3.0270    -7.2650    12.0380 H             1 RES     
    5543 O            8.1900     5.1120    13.5460 O             1 RES     
    5544 H            8.7200     5.4520    12.7700 H             1 RES     
    5545 H            8.0850     5.8400    14.2240 H             1 RES     
    5546 O            7.1880     9.8100     4.0320 O             1 RES     
    5547 H            7.8590    10.5500     4.0190 H             1 RES     
    5548 H            7.6450     8.9400     3.8450 H             1 RES     
    5549 O           36.9630     7.0520     1.7940 O             1 RES     
    5550 H           37.6840     6.7840     2.4310 H             1 RES     
    5551 H           36.5010     6.2350     1.4490 H             1 RES     
    5552 O           14.0880    27.6870     7.6430 O             1 RES     
    5553 H           14.6090    26.8340     7.6420 H             1 RES     
    5554 H           14.3600    28.2450     6.8590 H             1 RES     
    5555 O           18.7720    33.7940     4.5010 O             1 RES     
    5556 H           18.1390    34.2770     3.8960 H             1 RES     
    5557 H           19.7120    34.0520     4.2760 H             1 RES     
    5558 O           30.5070    -5.6170     6.8710 O             1 RES     
    5559 H           29.9850    -4.7670     6.8250 H             1 RES     
    5560 H           30.2580    -6.1190     7.6990 H             1 RES     
    5561 O           40.1180    16.5950     9.1020 O             1 RES     
    5562 H           39.7140    15.7680     8.7120 H             1 RES     
    5563 H           40.5090    17.1530     8.3690 H             1 RES     
    5564 O           33.2150    29.8780    13.7070 O             1 RES     
    5565 H           33.3600    28.9270    13.9760 H             1 RES     
    5566 H           33.9690    30.4400    14.0480 H             1 RES     
    5567 O           17.2150     9.4500     9.3450 O             1 RES     
    5568 H           17.3070    10.4450     9.3490 H             1 RES     
    5569 H           18.1230     9.0310     9.3250 H             1 RES     
    5570 O            6.2650     8.0380     2.3830 O             1 RES     
    5571 H            5.3880     8.4110     2.6850 H             1 RES     
    5572 H            6.2290     7.0390     2.4060 H             1 RES     
    5573 O           29.1620     8.7350    12.8670 O             1 RES     
    5574 H           28.3610     8.2740    13.2470 H             1 RES     
    5575 H           29.4360     9.4830    13.4720 H             1 RES     
    5576 O           -4.1310    -1.4530    14.2180 O             1 RES     
    5577 H           -3.9640    -0.4780    14.0760 H             1 RES     
    5578 H           -3.2710    -1.9560    14.1270 H             1 RES     
    5579 O           44.4930    32.6830     1.6810 O             1 RES     
    5580 H           45.3810    32.6220     2.1340 H             1 RES     
    5581 H           43.7890    32.2860     2.2700 H             1 RES     
    5582 O           15.8320    39.9180     5.6750 O             1 RES     
    5583 H           16.3480    40.3560     4.9400 H             1 RES     
    5584 H           14.9370    40.3570     5.7630 H             1 RES     
    5585 O           48.4960    10.7130     0.5560 O             1 RES     
    5586 H           49.3440    11.1460     0.8600 H             1 RES     
    5587 H           48.6160     9.7200     0.5370 H             1 RES     
    5588 O            3.7690    39.8150     2.1920 O             1 RES     
    5589 H            4.3590    39.0860     2.5370 H             1 RES     
    5590 H            2.8390    39.4660     2.0790 H             1 RES     
    5591 O           37.4350     2.5360     2.8090 O             1 RES     
    5592 H           37.9310     1.8810     3.3790 H             1 RES     
    5593 H           37.4220     2.2120     1.8630 H             1 RES     
    5594 O           44.2450    30.1340     9.6360 O             1 RES     
    5595 H           43.4520    29.5480     9.4690 H             1 RES     
    5596 H           43.9970    31.0880     9.4630 H             1 RES     
    5597 O           -4.6170     7.7590     0.5780 O             1 RES     
    5598 H           -5.5710     8.0550     0.5470 H             1 RES     
    5599 H           -4.5750     6.7610     0.5350 H             1 RES     
    5600 O           -4.9300    22.7110     4.0510 O             1 RES     
    5601 H           -5.9030    22.4850     4.0520 H             1 RES     
    5602 H           -4.8180    23.7050     4.0490 H             1 RES     
    5603 O           45.1460    20.1720    13.1750 O             1 RES     
    5604 H           44.7960    21.0220    13.5670 H             1 RES     
    5605 H           46.0090    20.3530    12.7030 H             1 RES     
    5606 O           31.6170    23.8710     8.2480 O             1 RES     
    5607 H           31.1550    23.0040     8.4300 H             1 RES     
    5608 H           32.1420    24.1450     9.0550 H             1 RES     
    5609 O           18.0130    32.0780     6.8290 O             1 RES     
    5610 H           18.6400    32.8530     6.7540 H             1 RES     
    5611 H           17.2040    32.3520     7.3490 H             1 RES     
    5612 O           40.6480    -2.0450     5.4010 O             1 RES     
    5613 H           40.3620    -2.7820     4.7890 H             1 RES     
    5614 H           40.2010    -1.1930     5.1290 H             1 RES     
    5615 O           45.9790    -7.1100     4.7840 O             1 RES     
    5616 H           46.7810    -7.7060     4.8030 H             1 RES     
    5617 H           45.2070    -7.6010     4.3820 H             1 RES     
    5618 O           50.5570    -1.0710     4.0200 O             1 RES     
    5619 H           51.3800    -0.5040     4.0030 H             1 RES     
    5620 H           49.7530    -0.4880     4.1380 H             1 RES     
    5621 O           46.8160    28.9210    10.3640 O             1 RES     
    5622 H           47.6130    28.3210    10.3060 H             1 RES     
    5623 H           46.0120    28.4450    10.0070 H             1 RES     
    5624 O           24.7720    -0.6640    13.6600 O             1 RES     
    5625 H           25.5940    -0.4980    14.2030 H             1 RES     
    5626 H           24.4480     0.2000    13.2730 H             1 RES     
    5627 O           26.6090    32.6120     3.2500 O             1 RES     
    5628 H           26.9590    31.7350     3.5750 H             1 RES     
    5629 H           27.3640    33.2650     3.1730 H             1 RES     
    5630 O           23.3070    24.9280     3.4040 O             1 RES     
    5631 H           23.4650    25.9150     3.3720 H             1 RES     
    5632 H           22.3310    24.7420     3.2920 H             1 RES     
    5633 O           37.1210    26.9080     4.9510 O             1 RES     
    5634 H           36.6350    27.7810     4.9490 H             1 RES     
    5635 H           38.1050    27.0740     4.8720 H             1 RES     
    5636 O           40.1300    -1.5920    11.7660 O             1 RES     
    5637 H           40.8880    -2.2120    11.9650 H             1 RES     
    5638 H           39.3590    -2.1150    11.4010 H             1 RES     
    5639 O           34.2210    26.9690    11.5860 O             1 RES     
    5640 H           35.0850    27.2470    11.1660 H             1 RES     
    5641 H           34.3080    26.0410    11.9470 H             1 RES     
    5642 O           26.4410    13.5850     8.6300 O             1 RES     
    5643 H           26.0720    12.6690     8.4770 H             1 RES     
    5644 H           26.0950    13.9450     9.4960 H             1 RES     
    5645 O           19.5620     3.5190    14.0910 O             1 RES     
    5646 H           19.3810     2.7980    13.4230 H             1 RES     
    5647 H           19.7410     4.3800    13.6140 H             1 RES     
    5648 O           43.4660    -6.2120     6.3170 O             1 RES     
    5649 H           42.9420    -5.3680     6.2090 H             1 RES     
    5650 H           42.8410    -6.9920     6.3420 H             1 RES     
    5651 O           23.0150     5.4220     4.2280 O             1 RES     
    5652 H           22.6370     5.5770     3.3160 H             1 RES     
    5653 H           22.8540     6.2280     4.7970 H             1 RES     
    5654 O           50.8130    32.8840    11.3700 O             1 RES     
    5655 H           50.3530    33.6610    11.7980 H             1 RES     
    5656 H           51.2310    33.1760    10.5100 H             1 RES     
    5657 O           13.5970    -0.1070     2.1350 O             1 RES     
    5658 H           13.9020     0.8270     2.3190 H             1 RES     
    5659 H           12.7090    -0.0830     1.6760 H             1 RES     
    5660 O           41.2210    30.5060    10.7060 O             1 RES     
    5661 H           41.4130    29.5460    10.5080 H             1 RES     
    5662 H           41.0920    30.6240    11.6910 H             1 RES     
    5663 O            5.6840    28.5820     3.4170 O             1 RES     
    5664 H            4.9200    28.6340     2.7750 H             1 RES     
    5665 H            5.8060    27.6350     3.7150 H             1 RES     
    5666 O           31.5570     6.5420     4.7600 O             1 RES     
    5667 H           30.9170     7.2380     5.0830 H             1 RES     
    5668 H           31.4010     6.3720     3.7860 H             1 RES     
    5669 O           49.9590    37.8270     7.7690 O             1 RES     
    5670 H           49.1750    37.7060     8.3760 H             1 RES     
    5671 H           49.8490    38.6730     7.2470 H             1 RES     
    5672 O           33.3870    39.5130    10.2430 O             1 RES     
    5673 H           32.5050    39.0450    10.2810 H             1 RES     
    5674 H           34.1180    38.8670    10.4640 H             1 RES     
    5675 O            5.3470    23.2650     6.7770 O             1 RES     
    5676 H            4.8070    22.4370     6.9250 H             1 RES     
    5677 H            4.7760    24.0700     6.9390 H             1 RES     
    5678 O           -4.5180    38.2630    10.2040 O             1 RES     
    5679 H           -5.4770    38.4660    10.0080 H             1 RES     
    5680 H           -4.4480    37.8090    11.0930 H             1 RES     
    5681 O           -1.0820    -6.1020     9.0380 O             1 RES     
    5682 H           -1.3860    -6.8820     9.5850 H             1 RES     
    5683 H           -1.1960    -5.2600     9.5660 H             1 RES     
    5684 O           27.8070    19.6910    13.7190 O             1 RES     
    5685 H           27.9670    18.7870    13.3240 H             1 RES     
    5686 H           28.6200    19.9830    14.2230 H             1 RES     
    5687 O           51.1160    -6.1690     6.7580 O             1 RES     
    5688 H           51.1740    -7.1470     6.5620 H             1 RES     
    5689 H           51.8030    -5.9250     7.4430 H             1 RES     
    5690 O           18.7010     1.8600    10.6810 O             1 RES     
    5691 H           17.9580     2.3640    11.1200 H             1 RES     
    5692 H           18.4060     0.9230    10.4970 H             1 RES     
    5693 O           -5.2530     7.3360     3.1400 O             1 RES     
    5694 H           -6.1140     7.0680     3.5710 H             1 RES     
    5695 H           -4.8320     6.5380     2.7090 H             1 RES     
    5696 O           43.1980    16.0620     8.7030 O             1 RES     
    5697 H           43.5210    15.7730     9.6030 H             1 RES     
    5698 H           43.2380    15.2880     8.0700 H             1 RES     
    5699 O           47.7450    14.1760    11.9850 O             1 RES     
    5700 H           47.5610    13.3840    12.5650 H             1 RES     
    5701 H           48.6880    14.4790    12.1240 H             1 RES     
    5702 O            3.6300    -0.3320     6.2290 O             1 RES     
    5703 H            2.8900    -0.8360     6.6730 H             1 RES     
    5704 H            4.1660    -0.9570     5.6610 H             1 RES     
    5705 O            4.7770     7.6450    12.0820 O             1 RES     
    5706 H            4.2170     8.4640    12.2030 H             1 RES     
    5707 H            4.3570     6.8790    12.5690 H             1 RES     
    5708 O           50.6560     9.7140     1.9070 O             1 RES     
    5709 H           50.9000     8.8270     1.5170 H             1 RES     
    5710 H           49.7870     9.6350     2.3970 H             1 RES     
    5711 O            8.7740    21.8940     1.8710 O             1 RES     
    5712 H            8.4970    21.6300     2.7950 H             1 RES     
    5713 H            9.6790    21.5180     1.6740 H             1 RES     
    5714 O           24.5770    27.5480     9.1380 O             1 RES     
    5715 H           23.5900    27.3990     9.1860 H             1 RES     
    5716 H           24.8760    28.0690     9.9370 H             1 RES     
    5717 O            6.0900     5.7390    13.3030 O             1 RES     
    5718 H            5.7020     5.7580    14.2240 H             1 RES     
    5719 H            5.7650     4.9250    12.8210 H             1 RES     
    5720 O           31.9860    36.2770     9.0820 O             1 RES     
    5721 H           31.7080    37.2350     9.1270 H             1 RES     
    5722 H           31.2410    35.7300     8.7000 H             1 RES     
    5723 O           34.9360     1.2760     0.8830 O             1 RES     
    5724 H           34.1190     1.8510     0.9160 H             1 RES     
    5725 H           34.6660     0.3160     0.8120 H             1 RES     
    5726 O           23.7170    11.0850     3.6490 O             1 RES     
    5727 H           23.0440    11.8240     3.6340 H             1 RES     
    5728 H           23.2480    10.2100     3.7700 H             1 RES     
    5729 O           45.8090    10.4930    10.1530 O             1 RES     
    5730 H           46.4290    10.3750    10.9280 H             1 RES     
    5731 H           45.0140     9.8980    10.2690 H             1 RES     
    5732 O           -4.5300    39.7570     7.3160 O             1 RES     
    5733 H           -5.1310    40.3030     6.7330 H             1 RES     
    5734 H           -3.8750    40.3570     7.7750 H             1 RES     
    5735 O           43.7130    30.0410     0.6310 O             1 RES     
    5736 H           43.4100    30.9880     0.5340 H             1 RES     
    5737 H           44.6560    30.0240     0.9630 H             1 RES     
    5738 O           30.3490    15.2550     9.5910 O             1 RES     
    5739 H           29.8210    14.6680    10.2030 H             1 RES     
    5740 H           31.2800    14.8980     9.5060 H             1 RES     
    5741 O           -4.6230    30.3880     1.0460 O             1 RES     
    5742 H           -5.0940    31.2150     1.3530 H             1 RES     
    5743 H           -3.6430    30.4790     1.2200 H             1 RES     
    5744 O            4.5380     2.3860     8.4420 O             1 RES     
    5745 H            3.9680     3.0870     8.0150 H             1 RES     
    5746 H            4.9630     2.7580     9.2670 H             1 RES     
    5747 O           34.4000    -6.6800     0.6630 O             1 RES     
    5748 H           35.3770    -6.8500     0.5340 H             1 RES     
    5749 H           33.8960    -7.5380     0.5640 H             1 RES     
    5750 O           19.7780    17.9620     1.0490 O             1 RES     
    5751 H           19.4090    18.2030     1.9460 H             1 RES     
    5752 H           19.9780    18.7970     0.5350 H             1 RES     
    5753 O            6.5660     6.9530     4.9440 O             1 RES     
    5754 H            5.9370     6.3530     5.4360 H             1 RES     
    5755 H            6.7070     7.7920     5.4700 H             1 RES     
    5756 O           -3.3590     0.8630     4.0550 O             1 RES     
    5757 H           -2.4990     0.8590     4.5640 H             1 RES     
    5758 H           -4.0830     1.2500     4.6260 H             1 RES     
    5759 O            6.9330    12.3820     2.2680 O             1 RES     
    5760 H            6.8470    12.3610     1.2730 H             1 RES     
    5761 H            7.5480    13.1240     2.5350 H             1 RES     
    5762 O            7.1060    36.3310     0.8890 O             1 RES     
    5763 H            6.8440    35.4190     1.2040 H             1 RES     
    5764 H            8.0470    36.3090     0.5500 H             1 RES     
    5765 O            4.7460    26.1200     5.9760 O             1 RES     
    5766 H            5.3070    26.2800     6.7880 H             1 RES     
    5767 H            5.3320    25.8370     5.2170 H             1 RES     
    5768 O           27.4840    33.2040    11.2460 O             1 RES     
    5769 H           27.5300    33.4200    10.2710 H             1 RES     
    5770 H           28.1870    32.5290    11.4720 H             1 RES     
    5771 O           37.5340    31.7790    13.2140 O             1 RES     
    5772 H           38.1740    31.0270    13.3670 H             1 RES     
    5773 H           36.6360    31.4090    12.9730 H             1 RES     
    5774 O           39.3500    -4.4440     2.6850 O             1 RES     
    5775 H           39.9540    -5.2300     2.5620 H             1 RES     
    5776 H           39.3350    -3.9000     1.8460 H             1 RES     
    5777 O           27.2290    -0.8350    12.7700 O             1 RES     
    5778 H           27.6340    -1.5790    13.3020 H             1 RES     
    5779 H           26.5130    -1.2010    12.1760 H             1 RES     
    5780 O           43.6230    26.9340     8.9030 O             1 RES     
    5781 H           43.8650    26.0440     8.5170 H             1 RES     
    5782 H           44.3950    27.5620     8.8040 H             1 RES     
    5783 O           25.9370     0.5630     6.2940 O             1 RES     
    5784 H           25.4340    -0.2890     6.1600 H             1 RES     
    5785 H           25.2910     1.3170     6.4150 H             1 RES     
    5786 O           29.6900    -0.6550    13.5720 O             1 RES     
    5787 H           29.0720    -0.1700    14.1900 H             1 RES     
    5788 H           30.0500    -1.4670    14.0320 H             1 RES     
    5789 O            2.3760    -5.5690     4.1980 O             1 RES     
    5790 H            1.9920    -6.3610     3.7260 H             1 RES     
    5791 H            3.3660    -5.6790     4.2830 H             1 RES     
    5792 O            5.3690     3.1120     6.3180 O             1 RES     
    5793 H            5.1090     4.0770     6.3370 H             1 RES     
    5794 H            6.3670     3.0360     6.3100 H             1 RES     
    5795 O           30.2440    36.2240    13.1940 O             1 RES     
    5796 H           30.5870    36.5500    12.3130 H             1 RES     
    5797 H           29.3730    35.7510    13.0590 H             1 RES     
    5798 O            4.3780    30.5150    12.5120 O             1 RES     
    5799 H            3.9070    31.3930    12.4350 H             1 RES     
    5800 H            4.7320    30.2450    11.6160 H             1 RES     
    5801 O            7.7330     5.5050     7.4020 O             1 RES     
    5802 H            6.9170     4.9480     7.2500 H             1 RES     
    5803 H            7.6350     6.3780     6.9220 H             1 RES     
    5804 O           32.0440    -7.2150    13.0830 O             1 RES     
    5805 H           32.0190    -6.2190    13.1690 H             1 RES     
    5806 H           32.9490    -7.5010    12.7690 H             1 RES     
    5807 O           28.1650    -5.4570     7.8600 O             1 RES     
    5808 H           27.8350    -6.4000     7.8250 H             1 RES     
    5809 H           27.4310    -4.8570     8.1780 H             1 RES     
    5810 O           44.4560    26.6980    10.9380 O             1 RES     
    5811 H           43.4820    26.5040    11.0560 H             1 RES     
    5812 H           44.9940    25.9260    11.2750 H             1 RES     
    5813 O           12.3270    33.6380    10.4840 O             1 RES     
    5814 H           12.5250    34.6060    10.6310 H             1 RES     
    5815 H           13.1580    33.1690    10.1820 H             1 RES     
    5816 O            5.5100    37.6020    13.9530 O             1 RES     
    5817 H            4.5880    37.8970    14.2000 H             1 RES     
    5818 H            5.8270    38.1220    13.1600 H             1 RES     
    5819 O           23.0600     3.7620     0.5380 O             1 RES     
    5820 H           23.0300     2.7660     0.6120 H             1 RES     
    5821 H           22.1270     4.1250     0.5340 H             1 RES     
    5822 O           11.5110    10.5850     4.9580 O             1 RES     
    5823 H           11.1050    11.4930     5.0580 H             1 RES     
    5824 H           11.2380    10.0100     5.7300 H             1 RES     
    5825 O           41.1280     3.6780    11.6180 O             1 RES     
    5826 H           40.2930     4.1380    11.3190 H             1 RES     
    5827 H           41.5880     4.2370    12.3090 H             1 RES     
    5828 O           15.6490    15.8290     3.7960 O             1 RES     
    5829 H           16.6400    15.8580     3.6700 H             1 RES     
    5830 H           15.2950    16.7610     3.8750 H             1 RES     
    5831 O           46.1240     7.3370     9.9180 O             1 RES     
    5832 H           47.0400     7.0220    10.1660 H             1 RES     
    5833 H           46.1880     8.2230     9.4590 H             1 RES     
    5834 O            7.2270    29.8020     1.8830 O             1 RES     
    5835 H            6.7240    30.2430     1.1410 H             1 RES     
    5836 H            8.2000    29.7720     1.6540 H             1 RES     
    5837 O            6.7950    31.8390    14.2170 O             1 RES     
    5838 H            6.4320    30.9080    14.2230 H             1 RES     
    5839 H            6.0390    32.4940    14.2150 H             1 RES     
    5840 O           19.4670    39.4450    11.4620 O             1 RES     
    5841 H           19.0000    39.5180    10.5820 H             1 RES     
    5842 H           20.1040    40.2090    11.5670 H             1 RES     
    5843 O           30.5960    30.9840     4.5210 O             1 RES     
    5844 H           30.5660    30.4700     3.6650 H             1 RES     
    5845 H           30.1160    30.4730     5.2350 H             1 RES     
    5846 O           24.0620     1.0570     8.7910 O             1 RES     
    5847 H           23.8150     0.1220     9.0430 H             1 RES     
    5848 H           23.4680     1.7000     9.2740 H             1 RES     
    5849 O           -3.2230     5.7520     9.8710 O             1 RES     
    5850 H           -3.9960     6.1900     9.4140 H             1 RES     
    5851 H           -2.8750     5.0080     9.3010 H             1 RES     
    5852 O           31.5220    13.5000    11.4910 O             1 RES     
    5853 H           30.5840    13.1920    11.6450 H             1 RES     
    5854 H           31.6240    14.4380    11.8240 H             1 RES     
    5855 O           16.4580     9.9400     3.7220 O             1 RES     
    5856 H           16.2050    10.3350     2.8390 H             1 RES     
    5857 H           17.0720    10.5650     4.2040 H             1 RES     
    5858 O           26.4230     3.0510     8.9050 O             1 RES     
    5859 H           26.0990     2.1250     9.0960 H             1 RES     
    5860 H           26.6950     3.1180     7.9450 H             1 RES     
    5861 O           26.6280    -4.0160     5.5270 O             1 RES     
    5862 H           26.1830    -4.3090     6.3720 H             1 RES     
    5863 H           26.3530    -4.6190     4.7780 H             1 RES     
    5864 O           10.5470    15.6270     0.6930 O             1 RES     
    5865 H           11.3650    15.0540     0.6780 H             1 RES     
    5866 H            9.7330    15.0480     0.6380 H             1 RES     
    5867 O            0.2910    10.9190     1.1410 O             1 RES     
    5868 H            0.5660    11.6650     0.5350 H             1 RES     
    5869 H            0.0130    10.1300     0.5940 H             1 RES     
    5870 O           -1.1140    20.2470     5.5350 O             1 RES     
    5871 H           -1.7070    19.8220     6.2180 H             1 RES     
    5872 H           -1.0490    19.6520     4.7330 H             1 RES     
    5873 O           47.5420    13.4870     0.6040 O             1 RES     
    5874 H           48.5300    13.6220     0.5350 H             1 RES     
    5875 H           47.3530    12.5570     0.9210 H             1 RES     
    5876 O           46.0480    32.2270     4.7190 O             1 RES     
    5877 H           45.1180    32.0130     4.4240 H             1 RES     
    5878 H           46.2880    33.1520     4.4220 H             1 RES     
    5879 O           13.9060    -3.9440    10.5140 O             1 RES     
    5880 H           13.4390    -3.0690    10.3950 H             1 RES     
    5881 H           13.6950    -4.5430     9.7410 H             1 RES     
    5882 O            8.3470    29.5420     8.6550 O             1 RES     
    5883 H            8.8490    30.3080     8.2550 H             1 RES     
    5884 H            7.3670    29.6640     8.4940 H             1 RES     
    5885 O           40.8010    20.2500     8.1450 O             1 RES     
    5886 H           40.8740    19.3350     8.5400 H             1 RES     
    5887 H           39.8540    20.4220     7.8740 H             1 RES     
    5888 O           25.4790    -3.2480    12.1420 O             1 RES     
    5889 H           24.6450    -3.1530    11.6010 H             1 RES     
    5890 H           25.6270    -4.2120    12.3630 H             1 RES     
    5891 O            7.2990     9.8390    12.1990 O             1 RES     
    5892 H            6.4990     9.2400    12.2200 H             1 RES     
    5893 H            7.0010    10.7940    12.1940 H             1 RES     
    5894 O           24.4520    26.9100     0.8740 O             1 RES     
    5895 H           23.5310    26.7230     0.5340 H             1 RES     
    5896 H           24.6090    27.8970     0.8860 H             1 RES     
    5897 O           24.3810    20.1670     9.3700 O             1 RES     
    5898 H           23.9850    21.0810     9.2970 H             1 RES     
    5899 H           25.1050    20.0620     8.6880 H             1 RES     
    5900 O           46.8240    18.7470    10.0350 O             1 RES     
    5901 H           45.8510    18.8550     9.8300 H             1 RES     
    5902 H           46.9870    18.9500    11.0000 H             1 RES     
    5903 O           -4.4430    33.3110    12.5440 O             1 RES     
    5904 H           -4.5180    33.9240    11.7590 H             1 RES     
    5905 H           -4.8740    33.7340    13.3410 H             1 RES     
    5906 O            4.6050    14.2900     2.3140 O             1 RES     
    5907 H            5.2910    14.9420     2.6330 H             1 RES     
    5908 H            4.9200    13.3580     2.4950 H             1 RES     
    5909 O           15.8250    32.3760     9.2390 O             1 RES     
    5910 H           16.4420    31.5910     9.2760 H             1 RES     
    5911 H           14.8770    32.0580     9.2520 H             1 RES     
    5912 O           29.6980     8.3700     1.3100 O             1 RES     
    5913 H           30.6490     8.4510     1.0120 H             1 RES     
    5914 H           29.0890     8.5380     0.5350 H             1 RES     
    5915 O           -3.7930     4.2710     0.7830 O             1 RES     
    5916 H           -4.7350     4.5640     0.6250 H             1 RES     
    5917 H           -3.1920     5.0700     0.7960 H             1 RES     
    5918 O           19.9820    32.5340     9.7960 O             1 RES     
    5919 H           19.2860    32.6360    10.5060 H             1 RES     
    5920 H           19.8530    33.2390     9.0980 H             1 RES     
    5921 O            7.6260    14.1900    14.0510 O             1 RES     
    5922 H            6.7380    13.7640    14.2230 H             1 RES     
    5923 H            7.9430    13.9420    13.1350 H             1 RES     
    5924 O            8.7070    12.1880    14.2230 O             1 RES     
    5925 H            8.2490    11.3090    14.0990 H             1 RES     
    5926 H            9.6740    12.0980    13.9850 H             1 RES     
    5927 O           -0.1450    35.7030     9.0000 O             1 RES     
    5928 H            0.0190    36.6870     8.9520 H             1 RES     
    5929 H            0.7190    35.2140     8.8770 H             1 RES     
    5930 O            2.2060    32.9280     1.5390 O             1 RES     
    5931 H            2.9480    32.3000     1.7690 H             1 RES     
    5932 H            2.4830    33.5030     0.7680 H             1 RES     
    5933 O           26.5690     5.3360     8.5850 O             1 RES     
    5934 H           25.6200     5.1220     8.3550 H             1 RES     
    5935 H           26.8230     6.2110     8.1730 H             1 RES     
    5936 O            2.7190    19.9520    14.2230 O             1 RES     
    5937 H            1.7950    20.2710    14.0140 H             1 RES     
    5938 H            3.3580    20.7180    14.1600 H             1 RES     
    5939 O           20.7240     4.6950     2.6760 O             1 RES     
    5940 H           21.2670     3.8590     2.7480 H             1 RES     
    5941 H           20.1940     4.6770     1.8280 H             1 RES     
    5942 O           24.9720    -2.5250     6.8130 O             1 RES     
    5943 H           25.0610    -2.4900     5.8190 H             1 RES     
    5944 H           24.1270    -2.0670     7.0900 H             1 RES     
    5945 O           45.8610    -6.2220    14.2020 O             1 RES     
    5946 H           46.5750    -5.6610    13.7850 H             1 RES     
    5947 H           46.1570    -7.1770    14.2240 H             1 RES     
    5948 O           -3.2080     9.4500     0.6610 O             1 RES     
    5949 H           -2.3900     8.8900     0.5340 H             1 RES     
    5950 H           -2.9480    10.4150     0.7090 H             1 RES     
    5951 O           48.9440    31.1050     9.8430 O             1 RES     
    5952 H           49.9350    31.2360     9.8420 H             1 RES     
    5953 H           48.7370    30.1300     9.7580 H             1 RES     
    5954 O           50.6960    31.9690     6.8790 O             1 RES     
    5955 H           49.9690    31.3970     6.5030 H             1 RES     
    5956 H           51.2900    32.2830     6.1380 H             1 RES     
    5957 O           38.8150     5.2880     4.6400 O             1 RES     
    5958 H           38.4180     4.4480     4.2710 H             1 RES     
    5959 H           38.4870     5.4290     5.5740 H             1 RES     
    5960 O           17.7360    26.7260     3.8460 O             1 RES     
    5961 H           17.1640    27.3920     3.3670 H             1 RES     
    5962 H           17.4450    25.8010     3.6030 H             1 RES     
    5963 O           34.3350    18.3920     1.5610 O             1 RES     
    5964 H           34.6040    18.9310     0.7630 H             1 RES     
    5965 H           33.8450    17.5740     1.2610 H             1 RES     
    5966 O            1.6420    39.0310     3.8880 O             1 RES     
    5967 H            0.7870    39.5480     3.8890 H             1 RES     
    5968 H            1.4400    38.0510     3.8820 H             1 RES     
    5969 O           23.3250    29.5950     8.2960 O             1 RES     
    5970 H           23.4470    30.1420     9.1230 H             1 RES     
    5971 H           24.2030    29.5020     7.8250 H             1 RES     
    5972 O            4.9080    33.9420    11.9610 O             1 RES     
    5973 H            5.8890    34.0300    11.7900 H             1 RES     
    5974 H            4.4510    34.8040    11.7390 H             1 RES     
    5975 O           -6.1140    34.9530     3.1190 O             1 RES     
    5976 H           -5.1740    34.6160     3.1510 H             1 RES     
    5977 H           -6.1100    35.9530     3.1010 H             1 RES     
    5978 O           15.7580     0.0290     7.1300 O             1 RES     
    5979 H           14.8810    -0.4150     7.3090 H             1 RES     
    5980 H           16.3000    -0.5400     6.5120 H             1 RES     
    5981 O           51.7910     7.2190     9.4960 O             1 RES     
    5982 H           51.6500     6.2870     9.1650 H             1 RES     
    5983 H           52.0420     7.8110     8.7300 H             1 RES     
    5984 O           -0.8420    27.2750     8.6890 O             1 RES     
    5985 H           -1.3670    26.6850     8.0770 H             1 RES     
    5986 H           -1.1570    27.1440     9.6300 H             1 RES     
    5987 O           25.5290     3.5270     2.9360 O             1 RES     
    5988 H           25.1520     3.0230     2.1590 H             1 RES     
    5989 H           26.4630     3.8160     2.7250 H             1 RES     
    5990 O            8.9460    11.5640     1.5050 O             1 RES     
    5991 H            9.4170    12.1910     0.8850 H             1 RES     
    5992 H            9.6180    10.9930     1.9760 H             1 RES     
    5993 O           51.6890    35.1840     9.5770 O             1 RES     
    5994 H           52.0490    35.2110     8.6450 H             1 RES     
    5995 H           52.0490    35.9590    10.0970 H             1 RES     
    5996 O            0.9060    39.8000     8.1490 O             1 RES     
    5997 H            1.0510    39.1240     7.4270 H             1 RES     
    5998 H            1.7730    39.9850     8.6120 H             1 RES     
    5999 O           34.8860     5.9080     5.8910 O             1 RES     
    6000 H           33.9620     5.7220     5.5590 H             1 RES     
    6001 H           35.4120     6.3670     5.1750 H             1 RES     
    6002 O            6.4950    19.2720    13.3560 O             1 RES     
    6003 H            5.7940    19.3070    14.0670 H             1 RES     
    6004 H            6.5750    18.3360    13.0110 H             1 RES     
    6005 O           24.2180    26.2180    10.9380 O             1 RES     
    6006 H           23.3830    25.7740    11.2630 H             1 RES     
    6007 H           24.6630    25.6350    10.2580 H             1 RES     
    6008 O           19.3100    -6.7650     9.9000 O             1 RES     
    6009 H           18.4260    -6.6040     9.4630 H             1 RES     
    6010 H           19.5990    -7.7080     9.7300 H             1 RES     
    6011 O           31.8080    19.0980    11.3960 O             1 RES     
    6012 H           31.0380    18.9140    10.7860 H             1 RES     
    6013 H           32.3190    18.2530    11.5530 H             1 RES     
    6014 O            4.8780    -1.9440     9.8540 O             1 RES     
    6015 H            5.3880    -1.0860     9.8150 H             1 RES     
    6016 H            3.9010    -1.7490     9.9450 H             1 RES     
    6017 O           16.6980    -4.2330     9.8330 O             1 RES     
    6018 H           17.4740    -4.6860    10.2730 H             1 RES     
    6019 H           15.8710    -4.7760     9.9750 H             1 RES     
    6020 O           27.5760    28.2300     8.1130 O             1 RES     
    6021 H           27.0410    28.8390     7.5290 H             1 RES     
    6022 H           28.3150    28.7460     8.5460 H             1 RES     
    6023 O           28.1880    20.9670    11.3280 O             1 RES     
    6024 H           28.3440    20.8080    10.3540 H             1 RES     
    6025 H           28.7790    20.3650    11.8640 H             1 RES     
    6026 O           19.6250    31.2730     2.2920 O             1 RES     
    6027 H           18.8670    31.9110     2.4190 H             1 RES     
    6028 H           19.6130    30.5900     3.0220 H             1 RES     
    6029 O           15.4540    35.4810    13.8660 O             1 RES     
    6030 H           14.9010    35.6210    13.0460 H             1 RES     
    6031 H           15.3000    34.5570    14.2190 H             1 RES     
    6032 O           49.5780     3.7470     3.2330 O             1 RES     
    6033 H           50.1610     4.3920     3.7250 H             1 RES     
    6034 H           49.2610     3.0360     3.8620 H             1 RES     
    6035 O           50.0260    23.5670    13.7480 O             1 RES     
    6036 H           50.5950    24.2670    14.1770 H             1 RES     
    6037 H           49.8130    23.8390    12.8090 H             1 RES     
    6038 O            7.0410    35.0030     7.5290 O             1 RES     
    6039 H            7.4120    35.7660     8.0580 H             1 RES     
    6040 H            7.7320    34.2850     7.4510 H             1 RES     
    6041 O           13.2670     3.4090     0.5400 O             1 RES     
    6042 H           13.4670     2.5980     1.0870 H             1 RES     
    6043 H           12.3090     3.6690     0.6650 H             1 RES     
    6044 O           26.8040    -2.9090    10.2500 O             1 RES     
    6045 H           26.9300    -3.8870    10.0880 H             1 RES     
    6046 H           26.8990    -2.4130     9.3860 H             1 RES     
    6047 O            3.0740    12.9340    13.3290 O             1 RES     
    6048 H            3.1630    12.4860    14.2180 H             1 RES     
    6049 H            3.8030    13.6110    13.2220 H             1 RES     
    6050 O           34.0930     4.9120    11.1420 O             1 RES     
    6051 H           33.6120     4.0370    11.1660 H             1 RES     
    6052 H           35.0570     4.7580    10.9250 H             1 RES     
    6053 O           10.7680    30.7410     5.0170 O             1 RES     
    6054 H           11.4330    30.3920     4.3580 H             1 RES     
    6055 H            9.8420    30.5530     4.6890 H             1 RES     
    6056 O           16.0180    -2.8520     6.4350 O             1 RES     
    6057 H           15.9300    -3.8150     6.6880 H             1 RES     
    6058 H           16.9850    -2.6230     6.3260 H             1 RES     
    6059 O           47.5040    -4.0820     7.1190 O             1 RES     
    6060 H           48.3390    -4.4440     6.7050 H             1 RES     
    6061 H           47.1260    -3.3630     6.5350 H             1 RES     
    6062 O           -1.8450    18.6250     2.2630 O             1 RES     
    6063 H           -1.8770    18.3280     1.3090 H             1 RES     
    6064 H           -2.6210    19.2270     2.4520 H             1 RES     
    6065 O           35.4330    31.9800     8.4140 O             1 RES     
    6066 H           36.2850    32.3900     8.0900 H             1 RES     
    6067 H           34.9620    31.5380     7.6510 H             1 RES     
    6068 O           14.6220    38.0410     3.2730 O             1 RES     
    6069 H           14.1510    37.1660     3.1710 H             1 RES     
    6070 H           14.1020    38.7560     2.8040 H             1 RES     
    6071 O           31.7790    16.0470     7.1380 O             1 RES     
    6072 H           30.9390    16.2330     7.6460 H             1 RES     
    6073 H           32.3980    16.8300     7.2190 H             1 RES     
    6074 O            2.5330     9.4630     2.0870 O             1 RES     
    6075 H            2.7450     9.9620     1.2470 H             1 RES     
    6076 H            1.6390     9.7510     2.4300 H             1 RES     
    6077 O           29.7670    17.1700     3.5280 O             1 RES     
    6078 H           30.7600    17.2310     3.6260 H             1 RES     
    6079 H           29.3850    18.0890     3.4230 H             1 RES     
    6080 O           45.6550    24.1720     9.5130 O             1 RES     
    6081 H           46.1370    25.0260     9.3210 H             1 RES     
    6082 H           44.6870    24.3650     9.6780 H             1 RES     
    6083 O           -5.6300    31.0570     7.9060 O             1 RES     
    6084 H           -4.7390    31.3730     8.2270 H             1 RES     
    6085 H           -5.8730    30.2070     8.3750 H             1 RES     
    6086 O            1.7810    12.2090     6.0200 O             1 RES     
    6087 H            0.9870    11.6330     6.2110 H             1 RES     
    6088 H            1.9430    12.8210     6.7940 H             1 RES     
    6089 O            5.7530    -4.8650     8.6090 O             1 RES     
    6090 H            6.6050    -4.7220     9.1130 H             1 RES     
    6091 H            4.9890    -4.9100     9.2520 H             1 RES     
    6092 O           51.7940     3.4530     5.4250 O             1 RES     
    6093 H           51.1820     2.8490     4.9170 H             1 RES     
    6094 H           52.0490     3.0200     6.2900 H             1 RES     
    6095 O           46.6940    17.7770    12.8750 O             1 RES     
    6096 H           45.7850    18.1310    12.6590 H             1 RES     
    6097 H           46.7680    17.6270    13.8610 H             1 RES     
    6098 O           41.1590    27.8300     9.1350 O             1 RES     
    6099 H           41.4800    26.9300     9.4270 H             1 RES     
    6100 H           40.1910    27.9300     9.3630 H             1 RES     
    6101 O            0.9840     8.7210     6.3480 O             1 RES     
    6102 H            1.2100     9.4910     5.7530 H             1 RES     
    6103 H            0.5530     7.9970     5.8080 H             1 RES     
    6104 O           -1.5700    29.4870     0.5450 O             1 RES     
    6105 H           -0.6750    29.9320     0.5340 H             1 RES     
    6106 H           -1.4490    28.4940     0.5510 H             1 RES     
    6107 O           39.3280    25.7150    12.1420 O             1 RES     
    6108 H           38.7220    25.9390    12.9050 H             1 RES     
    6109 H           39.6300    26.5590    11.6980 H             1 RES     
    6110 O           26.3480    18.3560     8.0660 O             1 RES     
    6111 H           26.9030    18.3850     7.2350 H             1 RES     
    6112 H           25.4340    18.0170     7.8450 H             1 RES     
    6113 O           30.5420     9.8910     2.6720 O             1 RES     
    6114 H           29.5860    10.1460     2.8090 H             1 RES     
    6115 H           31.1350    10.6020     3.0520 H             1 RES     
    6116 O           39.8670     4.1180    13.8360 O             1 RES     
    6117 H           38.9550     4.2520    14.2240 H             1 RES     
    6118 H           40.4490     4.8960    14.0740 H             1 RES     
    6119 O           -1.9350    30.3090    13.0690 O             1 RES     
    6120 H           -2.3400    30.1920    13.9760 H             1 RES     
    6121 H           -1.5930    29.4290    12.7400 H             1 RES     
    6122 O           50.7680     8.5480     4.0390 O             1 RES     
    6123 H           51.2910     8.3050     4.8550 H             1 RES     
    6124 H           50.4960     7.7150     3.5570 H             1 RES     
    6125 O           19.1500    -7.7040     1.3440 O             1 RES     
    6126 H           19.6840    -7.3120     2.0920 H             1 RES     
    6127 H           19.2280    -7.1210     0.5360 H             1 RES     
    6128 O           22.9920    -4.1110     3.9230 O             1 RES     
    6129 H           22.3030    -3.6460     4.4780 H             1 RES     
    6130 H           22.9680    -3.7500     2.9910 H             1 RES     
    6131 O           44.7150    -2.1240     2.3640 O             1 RES     
    6132 H           45.0330    -2.9360     2.8530 H             1 RES     
    6133 H           44.7910    -1.3250     2.9600 H             1 RES     
    6134 O            6.3710     9.1970     8.6420 O             1 RES     
    6135 H            5.8770     8.8340     9.4300 H             1 RES     
    6136 H            7.2740     9.5160     8.9310 H             1 RES     
    6137 O           -3.7210    -2.3290     7.7730 O             1 RES     
    6138 H           -4.6100    -2.5790     7.3930 H             1 RES     
    6139 H           -3.4870    -2.9570     8.5160 H             1 RES     
    6140 O            4.3840    24.3330    13.2520 O             1 RES     
    6141 H            4.5060    24.4750    12.2700 H             1 RES     
    6142 H            4.0370    23.4090    13.4150 H             1 RES     
    6143 O           42.6130    32.2250    11.6660 O             1 RES     
    6144 H           42.5130    32.2860    10.6740 H             1 RES     
    6145 H           43.1950    32.9710    11.9900 H             1 RES     
    6146 O           44.2870    16.7820     4.0820 O             1 RES     
    6147 H           43.6670    15.9990     4.0830 H             1 RES     
    6148 H           43.7550    17.6290     4.0820 H             1 RES     
    6149 O           -1.7930    34.4680     4.0660 O             1 RES     
    6150 H           -1.5280    33.5070     3.9970 H             1 RES     
    6151 H           -0.9920    35.0180     4.3030 H             1 RES     
    6152 O           34.7010    39.3700     5.0070 O             1 RES     
    6153 H           35.0230    40.2500     4.6580 H             1 RES     
    6154 H           35.1820    38.6290     4.5380 H             1 RES     
    6155 O           23.8810    31.3330     1.9290 O             1 RES     
    6156 H           24.6050    32.0150     2.0280 H             1 RES     
    6157 H           23.3590    31.2740     2.7800 H             1 RES     
    6158 O           42.2400    11.5930     2.1300 O             1 RES     
    6159 H           43.1060    11.8950     2.5270 H             1 RES     
    6160 H           42.3080    11.6020     1.1320 H             1 RES     
    6161 O           19.6650    25.0490     7.5180 O             1 RES     
    6162 H           19.5340    26.0380     7.4610 H             1 RES     
    6163 H           18.7840    24.6050     7.6870 H             1 RES     
    6164 O            4.7640    40.0050    13.5970 O             1 RES     
    6165 H            5.0370    40.3570    12.7030 H             1 RES     
    6166 H            5.5460    40.0320    14.2200 H             1 RES     
    6167 O           41.1060    24.7840     9.1050 O             1 RES     
    6168 H           40.5330    24.0170     8.8160 H             1 RES     
    6169 H           41.5950    24.5380     9.9420 H             1 RES     
    6170 O            7.7890     2.7360     2.6390 O             1 RES     
    6171 H            7.1190     1.9960     2.5970 H             1 RES     
    6172 H            8.7110     2.3500     2.6780 H             1 RES     
    6173 O           40.5750     5.4480     2.6540 O             1 RES     
    6174 H           39.9630     6.2350     2.5780 H             1 RES     
    6175 H           40.0340     4.6120     2.7440 H             1 RES     
    6176 O           47.1360     5.5210     5.8450 O             1 RES     
    6177 H           46.5450     6.2800     6.1130 H             1 RES     
    6178 H           47.3330     4.9530     6.6440 H             1 RES     
    6179 O           32.4550     1.3780     6.1930 O             1 RES     
    6180 H           31.9940     0.6220     6.6550 H             1 RES     
    6181 H           33.0870     1.0150     5.5080 H             1 RES     
    6182 O           -5.0270    14.9090     9.6580 O             1 RES     
    6183 H           -4.4730    14.0850     9.7680 H             1 RES     
    6184 H           -5.9970    14.6620     9.6550 H             1 RES     
    6185 O           15.4070     6.1670     3.4290 O             1 RES     
    6186 H           15.2890     6.7230     2.6060 H             1 RES     
    6187 H           14.5320     5.7520     3.6790 H             1 RES     
    6188 O           25.5160    33.2840     6.3550 O             1 RES     
    6189 H           25.9800    34.1570     6.5020 H             1 RES     
    6190 H           26.1290    32.6570     5.8760 H             1 RES     
    6191 O           51.0470    39.8640     8.6800 O             1 RES     
    6192 H           51.8240    39.2560     8.8380 H             1 RES     
    6193 H           50.4200    39.8130     9.4580 H             1 RES     
    6194 O           20.5060    20.0220     2.5170 O             1 RES     
    6195 H           19.7550    20.4270     1.9960 H             1 RES     
    6196 H           20.4700    20.3490     3.4620 H             1 RES     
    6197 O           21.9440    -1.8530    10.1510 O             1 RES     
    6198 H           22.7960    -1.8490    10.6720 H             1 RES     
    6199 H           21.8160    -2.7510     9.7270 H             1 RES     
    6200 O            5.3400     0.8320     6.9830 O             1 RES     
    6201 H            5.6340    -0.0260     7.4030 H             1 RES     
    6202 H            5.5200     0.8010     5.9990 H             1 RES     
    6203 O           24.6430    30.9540     4.8860 O             1 RES     
    6204 H           23.9180    30.3010     4.6720 H             1 RES     
    6205 H           24.2700    31.8820     4.8740 H             1 RES     
    6206 O           16.0610    23.8420     7.8690 O             1 RES     
    6207 H           16.3650    24.6840     7.4250 H             1 RES     
    6208 H           16.8300    23.4220     8.3520 H             1 RES     
    6209 O            6.7000    25.7510     1.6990 O             1 RES     
    6210 H            6.4110    25.9320     0.7590 H             1 RES     
    6211 H            6.7630    24.7630     1.8440 H             1 RES     
    6212 O           43.7490    23.5040     4.6570 O             1 RES     
    6213 H           44.0460    22.5690     4.4660 H             1 RES     
    6214 H           44.5460    24.0730     4.8620 H             1 RES     
    6215 O           -0.0480     0.8820     1.6600 O             1 RES     
    6216 H           -0.5140     0.0660     1.3210 H             1 RES     
    6217 H           -0.7260     1.5610     1.9420 H             1 RES     
    6218 O           51.5430    -4.7970    10.3870 O             1 RES     
    6219 H           51.6340    -3.8120    10.2420 H             1 RES     
    6220 H           51.7890    -5.2820     9.5470 H             1 RES     
    6221 O           33.4980    12.6250    11.9300 O             1 RES     
    6222 H           33.6360    13.5970    12.1140 H             1 RES     
    6223 H           33.4730    12.1210    12.7940 H             1 RES     
    6224 O           38.6870    27.2270     6.9950 O             1 RES     
    6225 H           39.5280    26.6930     6.9270 H             1 RES     
    6226 H           37.9110    26.6120     7.1390 H             1 RES     
    6227 O           43.5560     9.0080     1.5600 O             1 RES     
    6228 H           44.4850     8.7400     1.8130 H             1 RES     
    6229 H           43.0620     8.2110     1.2100 H             1 RES     
    6230 O           10.3840    32.7280     4.1360 O             1 RES     
    6231 H           11.3420    32.5670     3.9010 H             1 RES     
    6232 H           10.2770    33.6600     4.4820 H             1 RES     
    6233 O           32.8710    19.9400     7.1150 O             1 RES     
    6234 H           33.7790    20.3550     7.0650 H             1 RES     
    6235 H           32.2780    20.3510     6.4220 H             1 RES     
    6236 O           13.9840    21.9780    12.2160 O             1 RES     
    6237 H           13.0890    21.6280    11.9420 H             1 RES     
    6238 H           13.9480    22.9750    12.2790 H             1 RES     
    6239 O           29.3130    16.5870    12.9000 O             1 RES     
    6240 H           29.4130    16.5620    13.8940 H             1 RES     
    6241 H           29.9980    15.9920    12.4800 H             1 RES     
    6242 O           33.3760    35.2150    10.9880 O             1 RES     
    6243 H           32.7090    35.9420    11.1460 H             1 RES     
    6244 H           32.9130    34.4130    10.6110 H             1 RES     
    6245 O            4.6780    10.3370     3.7360 O             1 RES     
    6246 H            5.0820    10.0730     4.6120 H             1 RES     
    6247 H            3.6820    10.2530     3.7890 H             1 RES     
    6248 O           42.8340    -2.6960     8.5680 O             1 RES     
    6249 H           43.3860    -3.0810     7.8290 H             1 RES     
    6250 H           42.8210    -3.3320     9.3400 H             1 RES     
    6251 O           20.1710    -5.8580     7.8210 O             1 RES     
    6252 H           19.2520    -5.4700     7.7670 H             1 RES     
    6253 H           20.1170    -6.8550     7.7700 H             1 RES     
    6254 O            3.8920    14.3280    10.7440 O             1 RES     
    6255 H            4.7080    14.2130    11.3090 H             1 RES     
    6256 H            3.1390    13.7970    11.1330 H             1 RES     
    6257 O           37.0970    34.2690     2.5930 O             1 RES     
    6258 H           37.9120    34.7260     2.2400 H             1 RES     
    6259 H           36.3790    34.2810     1.8970 H             1 RES     
    6260 O           33.5720    10.8630     5.7930 O             1 RES     
    6261 H           34.4540    11.0080     5.3460 H             1 RES     
    6262 H           32.9140    11.5390     5.4620 H             1 RES     
    6263 O           42.5580    35.2340    13.6590 O             1 RES     
    6264 H           42.4790    36.1660    14.0100 H             1 RES     
    6265 H           43.5080    34.9310    13.7290 H             1 RES     
    6266 O           20.3190    25.8260    12.1180 O             1 RES     
    6267 H           20.3580    26.8170    11.9990 H             1 RES     
    6268 H           19.6340    25.4410    11.4990 H             1 RES     
    6269 O            0.3410    12.3130     9.1030 O             1 RES     
    6270 H            0.3860    11.6130     8.3920 H             1 RES     
    6271 H            1.2500    12.4460     9.4990 H             1 RES     
    6272 O           14.6350    -2.0810     8.8260 O             1 RES     
    6273 H           15.2560    -2.8050     8.5270 H             1 RES     
    6274 H           13.8140    -2.0900     8.2560 H             1 RES     
    6275 O           47.5220     9.8770     4.1270 O             1 RES     
    6276 H           46.6850    10.4210     4.1800 H             1 RES     
    6277 H           47.5470     9.3870     3.2550 H             1 RES     
    6278 O           49.9600    -3.1430    12.6540 O             1 RES     
    6279 H           50.4130    -2.7590    11.8500 H             1 RES     
    6280 H           49.0290    -3.4170    12.4120 H             1 RES     
    6281 O           -3.4720    37.0780     5.1630 O             1 RES     
    6282 H           -3.5280    37.9480     4.6730 H             1 RES     
    6283 H           -3.1090    36.3740     4.5520 H             1 RES     
    6284 O           -3.6790    12.5640     1.1820 O             1 RES     
    6285 H           -4.4040    12.0640     0.7100 H             1 RES     
    6286 H           -2.9490    12.7840     0.5350 H             1 RES     
    6287 O           50.7960    37.3710    13.2330 O             1 RES     
    6288 H           49.9470    37.8930    13.3040 H             1 RES     
    6289 H           50.5840    36.3970    13.1490 H             1 RES     
    6290 O            0.6520    21.6040    10.7720 O             1 RES     
    6291 H            0.4130    20.7120    10.3910 H             1 RES     
    6292 H            1.3750    21.4920    11.4550 H             1 RES     
    6293 O           41.6460     4.7540     0.5370 O             1 RES     
    6294 H           41.8390     5.6840     0.8490 H             1 RES     
    6295 H           40.6700     4.5630     0.6390 H             1 RES     
    6296 O           47.8200    35.8590    10.8820 O             1 RES     
    6297 H           48.7990    35.6790    10.7890 H             1 RES     
    6298 H           47.6380    36.2580    11.7810 H             1 RES     
    6299 O           18.4390    13.3250     4.0810 O             1 RES     
    6300 H           17.9190    12.6480     3.5620 H             1 RES     
    6301 H           18.1260    14.2440     3.8390 H             1 RES     
    6302 O           28.3200    12.3140     9.7980 O             1 RES     
    6303 H           29.2810    12.2550    10.0680 H             1 RES     
    6304 H           28.1990    11.8930     8.8990 H             1 RES     
    6305 O           19.1520    22.5520     3.0540 O             1 RES     
    6306 H           18.2030    22.4910     3.3610 H             1 RES     
    6307 H           19.1800    22.5490     2.0540 H             1 RES     
    6308 O           29.4060    17.1420     1.2880 O             1 RES     
    6309 H           28.5230    17.6060     1.3470 H             1 RES     
    6310 H           30.1160    17.8050     1.0460 H             1 RES     
    6311 O            6.3280    -2.5710     7.2430 O             1 RES     
    6312 H            5.5680    -2.9720     6.7330 H             1 RES     
    6313 H            6.1970    -2.7340     8.2210 H             1 RES     
    6314 O           24.9630    -6.1180     6.0920 O             1 RES     
    6315 H           24.4420    -5.5150     5.4890 H             1 RES     
    6316 H           25.6890    -6.5660     5.5700 H             1 RES     
    6317 O           -1.1830    14.1860    11.7970 O             1 RES     
    6318 H           -0.2320    14.4900    11.7570 H             1 RES     
    6319 H           -1.7910    14.9690    11.6620 H             1 RES     
    6320 O           37.8120    29.4260     2.7650 O             1 RES     
    6321 H           37.4770    28.5100     2.9840 H             1 RES     
    6322 H           37.1640    29.8810     2.1540 H             1 RES     
    6323 O           37.2350    14.4970    10.0880 O             1 RES     
    6324 H           37.0690    15.1730     9.3710 H             1 RES     
    6325 H           36.3750    14.2810    10.5500 H             1 RES     
    6326 O           24.5450     1.5820    11.4450 O             1 RES     
    6327 H           25.1300     1.9690    12.1580 H             1 RES     
    6328 H           25.0270     0.8360    10.9870 H             1 RES     
    6329 O           39.6670    34.3330     7.0200 O             1 RES     
    6330 H           39.1500    34.0610     6.2090 H             1 RES     
    6331 H           40.2720    33.5860     7.2960 H             1 RES     
    6332 O           37.8690    23.1960     2.1980 O             1 RES     
    6333 H           37.0810    23.7930     2.0510 H             1 RES     
    6334 H           38.4350    23.1790     1.3740 H             1 RES     
    6335 O            5.4760     5.2450     9.9000 O             1 RES     
    6336 H            6.1120     5.2400    10.6710 H             1 RES     
    6337 H            5.1620     6.1790     9.7320 H             1 RES     
    6338 O            2.1220    37.4790    10.0650 O             1 RES     
    6339 H            2.9250    37.6220     9.4890 H             1 RES     
    6340 H            1.7920    38.3610    10.4030 H             1 RES     
    6341 O           38.8030    21.6320     3.5170 O             1 RES     
    6342 H           38.1180    22.0880     4.0850 H             1 RES     
    6343 H           38.4890    20.7090     3.2930 H             1 RES     
    6344 O            5.9290    23.3060     9.3700 O             1 RES     
    6345 H            6.2030    22.4450     8.9440 H             1 RES     
    6346 H            6.0720    24.0580     8.7260 H             1 RES     
    6347 O           -1.4390    -6.5040     1.3780 O             1 RES     
    6348 H           -1.2200    -7.3550     0.9010 H             1 RES     
    6349 H           -1.3450    -5.7340     0.7470 H             1 RES     
    6350 O            8.2620    37.7010     9.7400 O             1 RES     
    6351 H            7.7120    36.8950     9.9560 H             1 RES     
    6352 H            9.2330    37.4660     9.7920 H             1 RES     
    6353 O           50.3830    22.5850    10.2570 O             1 RES     
    6354 H           50.1820    22.2810    11.1870 H             1 RES     
    6355 H           50.0420    21.9080     9.6030 H             1 RES     
    6356 O           13.4000    11.8250    11.2210 O             1 RES     
    6357 H           13.9720    12.5910    11.5130 H             1 RES     
    6358 H           13.5730    11.6280    10.2560 H             1 RES     
    6359 O           22.3350    27.2110    13.9050 O             1 RES     
    6360 H           21.3690    26.9630    13.9660 H             1 RES     
    6361 H           22.8400    26.4740    13.4550 H             1 RES     
    6362 O           37.6320    20.7040    10.6580 O             1 RES     
    6363 H           37.5900    21.6920    10.8010 H             1 RES     
    6364 H           38.4880    20.4690    10.1970 H             1 RES     
    6365 O           33.6670    -7.7060    10.5060 O             1 RES     
    6366 H           32.9070    -7.7080     9.8570 H             1 RES     
    6367 H           34.2740    -6.9370    10.3060 H             1 RES     
    6368 O           26.9510    35.3700    11.1090 O             1 RES     
    6369 H           26.7720    35.8600    10.2560 H             1 RES     
    6370 H           27.9350    35.3580    11.2870 H             1 RES     
    6371 O           22.2110    35.2280     3.1390 O             1 RES     
    6372 H           22.5630    34.3080     2.9720 H             1 RES     
    6373 H           21.2380    35.2600     2.9100 H             1 RES     
    6374 O           37.9180    23.3960    13.4530 O             1 RES     
    6375 H           38.1430    22.8010    14.2240 H             1 RES     
    6376 H           36.9360    23.5850    13.4520 H             1 RES     
    6377 O           33.9890    29.2030    10.9940 O             1 RES     
    6378 H           32.9900    29.1850    10.9770 H             1 RES     
    6379 H           34.3090    29.1540    11.9410 H             1 RES     
    6380 O           14.1330    23.1810     4.7010 O             1 RES     
    6381 H           14.6560    22.8980     3.8970 H             1 RES     
    6382 H           13.1920    22.8530     4.6190 H             1 RES     
    6383 O           17.7060     5.2840     7.5810 O             1 RES     
    6384 H           17.9140     6.2410     7.3830 H             1 RES     
    6385 H           16.7600     5.2070     7.8970 H             1 RES     
    6386 O            0.3500    27.8980     3.6790 O             1 RES     
    6387 H           -0.4150    27.3740     4.0500 H             1 RES     
    6388 H            0.1350    28.8740     3.7150 H             1 RES     
    6389 O           29.7900    37.3600     7.1850 O             1 RES     
    6390 H           28.8600    37.7270     7.1970 H             1 RES     
    6391 H           29.7540    36.3610     7.1630 H             1 RES     
    6392 O            7.9000     9.7180     0.8450 O             1 RES     
    6393 H            7.2580     9.8390     1.6010 H             1 RES     
    6394 H            7.9110     8.7580     0.5660 H             1 RES     
    6395 O            5.2550     0.8330    11.3090 O             1 RES     
    6396 H            4.7710     1.7010    11.1980 H             1 RES     
    6397 H            6.2370     0.9810    11.1910 H             1 RES     
    6398 O           41.0180    31.1940    14.0460 O             1 RES     
    6399 H           41.8480    30.7210    13.7550 H             1 RES     
    6400 H           41.1830    32.1800    14.0610 H             1 RES     
    6401 O           10.5900     8.1250     8.2720 O             1 RES     
    6402 H           10.3290     9.0860     8.3470 H             1 RES     
    6403 H           11.5660     8.0590     8.0630 H             1 RES     
    6404 O           -1.4550    27.8090    14.2220 O             1 RES     
    6405 H           -0.4820    28.0190    14.1260 H             1 RES     
    6406 H           -1.6200    26.8600    13.9520 H             1 RES     
    6407 O           42.7110    19.8650    13.6920 O             1 RES     
    6408 H           42.9670    20.1050    12.7570 H             1 RES     
    6409 H           43.3750    19.2170    14.0640 H             1 RES     
    6410 O           -1.9300     9.7500     4.2640 O             1 RES     
    6411 H           -1.4560     8.8750     4.3500 H             1 RES     
    6412 H           -2.9150     9.6080     4.3670 H             1 RES     
    6413 O           33.7280    16.0160     5.0720 O             1 RES     
    6414 H           32.7400    15.8670     5.0920 H             1 RES     
    6415 H           34.0930    15.9540     6.0010 H             1 RES     
    6416 O           19.7300     7.9970    10.7810 O             1 RES     
    6417 H           19.8870     7.0270    10.9620 H             1 RES     
    6418 H           20.1010     8.2330     9.8820 H             1 RES     
    6419 O           39.4170     1.2620     5.5040 O             1 RES     
    6420 H           38.7080     0.7070     5.0690 H             1 RES     
    6421 H           39.2050     2.2320     5.3790 H             1 RES     
    6422 O           47.7380    16.0340    10.4450 O             1 RES     
    6423 H           47.1120    16.7000    10.8500 H             1 RES     
    6424 H           48.1390    16.4160     9.6120 H             1 RES     
    6425 O           39.4890    31.9030    10.5610 O             1 RES     
    6426 H           38.5580    31.5850    10.7350 H             1 RES     
    6427 H           39.4900    32.8980    10.4630 H             1 RES     
    6428 O           36.8600     3.8620     5.7100 O             1 RES     
    6429 H           36.0040     4.1210     5.2640 H             1 RES     
    6430 H           36.7200     3.0280     6.2440 H             1 RES     
    6431 O           50.4670    16.5200     1.9130 O             1 RES     
    6432 H           49.6310    16.0370     2.1720 H             1 RES     
    6433 H           51.2440    15.8930     1.9670 H             1 RES     
    6434 O            7.6330    13.8590     7.3810 O             1 RES     
    6435 H            8.5990    13.6500     7.5260 H             1 RES     
    6436 H            7.2520    13.2270     6.7050 H             1 RES     
    6437 O           39.3930     2.7790     7.5020 O             1 RES     
    6438 H           38.7560     3.5480     7.5030 H             1 RES     
    6439 H           38.8810     1.9210     7.5380 H             1 RES     
    6440 O           -5.7470     9.7220     4.2440 O             1 RES     
    6441 H           -6.0070     9.4680     3.3140 H             1 RES     
    6442 H           -5.8200     8.9230     4.8420 H             1 RES     
    6443 O           35.3160    33.1670     3.8900 O             1 RES     
    6444 H           35.2430    34.1570     3.7770 H             1 RES     
    6445 H           34.4040    32.7580     3.8410 H             1 RES     
    6446 O            4.1390    11.5770     0.6710 O             1 RES     
    6447 H            4.3360    12.5470     0.5350 H             1 RES     
    6448 H            4.4650    11.2930     1.5730 H             1 RES     
    6449 O           51.4190    13.5230     9.4500 O             1 RES     
    6450 H           52.0480    13.5320    10.2260 H             1 RES     
    6451 H           50.6150    14.0780     9.6660 H             1 RES     
    6452 O           37.7760    29.2250     7.3670 O             1 RES     
    6453 H           37.8380    28.8750     8.3010 H             1 RES     
    6454 H           37.5300    30.1950     7.3900 H             1 RES     
    6455 O           21.0130    15.6300    10.1420 O             1 RES     
    6456 H           21.1700    16.3420     9.4590 H             1 RES     
    6457 H           21.8920    15.2720    10.4580 H             1 RES     
    6458 O           10.8800     1.1740     5.5040 O             1 RES     
    6459 H           10.0090     0.6870     5.5560 H             1 RES     
    6460 H           10.7100     2.1460     5.3440 H             1 RES     
    6461 O            9.6180    26.8250    13.8780 O             1 RES     
    6462 H            9.7260    25.8940    14.2240 H             1 RES     
    6463 H            8.8540    26.8560    13.2330 H             1 RES     
    6464 O           21.7960     2.7450     7.8950 O             1 RES     
    6465 H           21.7920     1.7470     7.8350 H             1 RES     
    6466 H           21.9590     3.1330     6.9870 H             1 RES     
    6467 O           -2.5460     0.1740    12.3710 O             1 RES     
    6468 H           -1.5750     0.4130    12.3670 H             1 RES     
    6469 H           -2.6440    -0.8210    12.3490 H             1 RES     
    6470 O           40.0880    30.8300     0.8970 O             1 RES     
    6471 H           39.2320    30.3670     1.1250 H             1 RES     
    6472 H           40.0190    31.7980     1.1400 H             1 RES     
    6473 O           23.3600    36.5590     0.5350 O             1 RES     
    6474 H           23.6590    37.5120     0.5540 H             1 RES     
    6475 H           22.7420    36.3870     1.3020 H             1 RES     
    6476 O           -0.2590    25.2590     1.5470 O             1 RES     
    6477 H           -0.6890    24.3740     1.7250 H             1 RES     
    6478 H           -0.9620    25.9280     1.3040 H             1 RES     
    6479 O           45.8640     2.6560     7.9630 O             1 RES     
    6480 H           45.8590     1.6570     7.9840 H             1 RES     
    6481 H           46.8070     2.9870     7.9920 H             1 RES     
    6482 O           26.6450    31.7240     1.2370 O             1 RES     
    6483 H           26.3220    30.8010     1.0350 H             1 RES     
    6484 H           26.3160    32.3550     0.5340 H             1 RES     
    6485 O           34.4190    36.4490     5.8840 O             1 RES     
    6486 H           34.0060    37.3590     5.8980 H             1 RES     
    6487 H           34.4020    36.0890     4.9500 H             1 RES     
    6488 O           -1.2280    19.7360     9.2970 O             1 RES     
    6489 H           -1.5300    20.6880     9.3010 H             1 RES     
    6490 H           -1.9780    19.1500     8.9880 H             1 RES     
    6491 O            5.4550    28.0570     0.6200 O             1 RES     
    6492 H            5.0410    28.9620     0.5340 H             1 RES     
    6493 H            4.7360    27.3630     0.6520 H             1 RES     
    6494 O           17.2870    34.2740     9.8770 O             1 RES     
    6495 H           17.6720    33.6210     9.2250 H             1 RES     
    6496 H           17.6800    34.1140    10.7820 H             1 RES     
    6497 O           12.3730    -7.1320     9.2370 O             1 RES     
    6498 H           13.1800    -7.7080     9.1110 H             1 RES     
    6499 H           11.5560    -7.7080     9.2810 H             1 RES     
    6500 O           28.3230    24.1260     8.6660 O             1 RES     
    6501 H           28.8100    23.2890     8.4210 H             1 RES     
    6502 H           27.3640    23.9120     8.8540 H             1 RES     
    6503 O           -3.5170    -4.8730     9.6320 O             1 RES     
    6504 H           -3.3260    -5.7940     9.2950 H             1 RES     
    6505 H           -4.4200    -4.8550    10.0620 H             1 RES     
    6506 O            0.3740     2.0580     4.1170 O             1 RES     
    6507 H            0.5540     3.0420     4.1140 H             1 RES     
    6508 H           -0.6130     1.9000     4.1130 H             1 RES     
    6509 O           33.6020    37.4650     3.1480 O             1 RES     
    6510 H           33.4720    38.3180     2.6430 H             1 RES     
    6511 H           32.9980    37.4530     3.9450 H             1 RES     
    6512 O           25.1280    28.2490     3.9030 O             1 RES     
    6513 H           25.7360    29.0310     3.7690 H             1 RES     
    6514 H           24.2290    28.4540     3.5170 H             1 RES     
    6515 O           11.5750    31.9650    13.2810 O             1 RES     
    6516 H           11.4100    32.9440    13.1630 H             1 RES     
    6517 H           11.8600    31.7850    14.2230 H             1 RES     
    6518 O           23.2120    31.1750     6.7030 O             1 RES     
    6519 H           23.3830    31.6780     7.5500 H             1 RES     
    6520 H           22.2710    30.8340     6.7020 H             1 RES     
    6521 O           -2.5640    34.9170     6.5250 O             1 RES     
    6522 H           -1.9080    35.6310     6.7680 H             1 RES     
    6523 H           -2.0720    34.1020     6.2190 H             1 RES     
    6524 O           38.1390     3.5430    11.2910 O             1 RES     
    6525 H           37.1620     3.3440    11.2140 H             1 RES     
    6526 H           38.6380     2.6940    11.4680 H             1 RES     
    6527 O            7.8660    37.8450     6.7310 O             1 RES     
    6528 H            7.6750    37.4390     5.8390 H             1 RES     
    6529 H            7.6800    38.8270     6.6980 H             1 RES     
    6530 O           19.6700    -1.4700     1.4730 O             1 RES     
    6531 H           20.5960    -1.8470     1.4850 H             1 RES     
    6532 H           19.0100    -2.2110     1.3480 H             1 RES     
    6533 O            9.2260    15.8220     3.3800 O             1 RES     
    6534 H            8.5680    16.3390     2.8340 H             1 RES     
    6535 H           10.1360    15.9050     2.9730 H             1 RES     
    6536 O           33.8920    13.4490     7.6780 O             1 RES     
    6537 H           33.2970    14.2510     7.6360 H             1 RES     
    6538 H           33.4170    12.6600     7.2870 H             1 RES     
    6539 O           37.6630    18.2460     1.3620 O             1 RES     
    6540 H           36.7090    18.5380     1.2960 H             1 RES     
    6541 H           37.9180    17.7470     0.5340 H             1 RES     
    6542 O           43.7940     8.1100     7.5220 O             1 RES     
    6543 H           44.1570     7.8450     6.6300 H             1 RES     
    6544 H           44.4080     7.7860     8.2430 H             1 RES     
    6545 O           44.8740    27.2670     2.1220 O             1 RES     
    6546 H           44.5440    26.4020     2.4990 H             1 RES     
    6547 H           45.8070    27.1490     1.7830 H             1 RES     
    6548 O           11.7170     2.5520     3.1140 O             1 RES     
    6549 H           12.0610     1.7290     3.5640 H             1 RES     
    6550 H           12.0070     3.3600     3.6280 H             1 RES     
    6551 O            3.5190    -4.7320    12.0430 O             1 RES     
    6552 H            4.3990    -5.1770    11.8850 H             1 RES     
    6553 H            3.6700    -3.7830    12.3220 H             1 RES     
    6554 O           30.1620    23.3100    10.4570 O             1 RES     
    6555 H           29.6470    22.5300    10.8110 H             1 RES     
    6556 H           31.1060    23.2640    10.7850 H             1 RES     
    6557 O           29.7980     1.9700     6.0350 O             1 RES     
    6558 H           30.3490     2.1790     6.8420 H             1 RES     
    6559 H           30.2920     1.3250     5.4510 H             1 RES     
    6560 O           45.7100    -3.2220    10.9640 O             1 RES     
    6561 H           46.5560    -3.7540    10.9510 H             1 RES     
    6562 H           45.0050    -3.7290    11.4590 H             1 RES     
    6563 O           38.7070    36.3160    10.6770 O             1 RES     
    6564 H           37.7460    36.5780    10.5890 H             1 RES     
    6565 H           38.7950    35.5990    11.3680 H             1 RES     
    6566 O           32.2350     8.8270     9.9470 O             1 RES     
    6567 H           31.2800     8.5530    10.0550 H             1 RES     
    6568 H           32.5880     8.4740     9.0800 H             1 RES     
    6569 O           33.0520    16.7630    13.4520 O             1 RES     
    6570 H           33.8250    16.1520    13.2860 H             1 RES     
    6571 H           33.3830    17.7020    13.5490 H             1 RES     
    6572 O           17.1440    39.4590     1.3700 O             1 RES     
    6573 H           16.9360    39.6220     2.3340 H             1 RES     
    6574 H           16.3350    39.0900     0.9120 H             1 RES     
    6575 O           45.3070     1.4650     1.5130 O             1 RES     
    6576 H           45.7260     1.9410     0.7410 H             1 RES     
    6577 H           44.4740     1.0030     1.2070 H             1 RES     
    6578 O           39.0310    13.4760     8.9380 O             1 RES     
    6579 H           39.1070    12.6150     8.4360 H             1 RES     
    6580 H           39.8940    13.6660     9.4070 H             1 RES     
    6581 O           34.3690    12.9290     3.6500 O             1 RES     
    6582 H           34.3000    13.7000     4.2830 H             1 RES     
    6583 H           35.2940    12.8880     3.2730 H             1 RES     
    6584 O           47.4490     0.6210    10.1680 O             1 RES     
    6585 H           46.5770     0.5190    10.6450 H             1 RES     
    6586 H           47.3960     1.3950     9.5360 H             1 RES     
    6587 O           19.1920    -2.9440     9.5310 O             1 RES     
    6588 H           19.8100    -3.6350     9.9070 H             1 RES     
    6589 H           18.5640    -3.3750     8.8830 H             1 RES     
    6590 O            7.8040     6.0380     0.9780 O             1 RES     
    6591 H            8.7210     6.1630     0.5990 H             1 RES     
    6592 H            7.8700     5.5930     1.8710 H             1 RES     
    6593 O           17.4090    38.5280     4.3310 O             1 RES     
    6594 H           16.5850    38.0960     4.6960 H             1 RES     
    6595 H           17.9680    38.8710     5.0860 H             1 RES     
    6596 O           27.7220    -1.6310     1.3600 O             1 RES     
    6597 H           26.8400    -1.3380     1.7270 H             1 RES     
    6598 H           28.2680    -0.8270     1.1220 H             1 RES     
    6599 O           33.3210    27.3020     8.9400 O             1 RES     
    6600 H           33.3590    26.3960     8.5190 H             1 RES     
    6601 H           34.2470    27.6060     9.1640 H             1 RES     
    6602 O           24.8430    36.0880    13.4540 O             1 RES     
    6603 H           24.2650    36.4810    12.7390 H             1 RES     
    6604 H           24.2690    35.6240    14.1290 H             1 RES     
    6605 O           -5.4540    14.8640     1.2150 O             1 RES     
    6606 H           -4.5320    14.5790     0.9550 H             1 RES     
    6607 H           -6.1090    14.5310     0.5360 H             1 RES     
    6608 O           35.6290    25.5560     7.5590 O             1 RES     
    6609 H           36.2990    24.9410     7.9730 H             1 RES     
    6610 H           34.7810    25.0560     7.3830 H             1 RES     
    6611 O           51.3830    11.6290     3.4640 O             1 RES     
    6612 H           51.2060    10.7020     3.7930 H             1 RES     
    6613 H           52.0480    11.5960     2.7170 H             1 RES     
    6614 O           44.7710    18.5240     1.3570 O             1 RES     
    6615 H           43.7810    18.3880     1.3540 H             1 RES     
    6616 H           45.2300    17.6360     1.3930 H             1 RES     
    6617 O           12.9300    27.1020     5.6390 O             1 RES     
    6618 H           13.5900    26.3510     5.6490 H             1 RES     
    6619 H           12.1730    26.8720     5.0270 H             1 RES     
    6620 O           41.0490    34.9550     1.4010 O             1 RES     
    6621 H           40.2540    34.4260     1.6990 H             1 RES     
    6622 H           40.7910    35.9150     1.2970 H             1 RES     
    6623 O           27.0730     8.4030     2.3690 O             1 RES     
    6624 H           27.5460     9.2740     2.2410 H             1 RES     
    6625 H           27.3830     7.7490     1.6780 H             1 RES     
    6626 O           13.0920    -6.5280     6.1020 O             1 RES     
    6627 H           13.1840    -5.5590     6.3290 H             1 RES     
    6628 H           13.9620    -6.9940     6.2630 H             1 RES     
    6629 O           22.1700    23.2050     4.9610 O             1 RES     
    6630 H           22.3340    22.3680     5.4800 H             1 RES     
    6631 H           22.7770    23.9280     5.2910 H             1 RES     
    6632 O            5.4710    -7.3840     7.0890 O             1 RES     
    6633 H            6.2510    -7.5550     7.6910 H             1 RES     
    6634 H            5.0100    -6.5430     7.3700 H             1 RES     
    6635 O           34.5150    24.4230     9.8150 O             1 RES     
    6636 H           34.9140    25.3280     9.6730 H             1 RES     
    6637 H           35.0520    23.9240    10.4950 H             1 RES     
    6638 O           50.4970    27.9340    11.2270 O             1 RES     
    6639 H           50.1030    27.0160    11.2180 H             1 RES     
    6640 H           49.7630    28.6130    11.2170 H             1 RES     
    6641 O           43.7130    16.5620    12.4750 O             1 RES     
    6642 H           44.6100    16.2760    12.8100 H             1 RES     
    6643 H           43.6290    17.5560    12.5510 H             1 RES     
    6644 O           29.4260     2.3860     9.0440 O             1 RES     
    6645 H           29.0900     1.5000     8.7260 H             1 RES     
    6646 H           28.6900     3.0620     8.9860 H             1 RES     
    6647 O           28.6870     4.9400     6.9550 O             1 RES     
    6648 H           28.7620     5.1010     7.9390 H             1 RES     
    6649 H           27.7240     4.8300     6.7080 H             1 RES     
    6650 O           15.4340    -0.3710    13.3140 O             1 RES     
    6651 H           14.7910    -0.0450    14.0050 H             1 RES     
    6652 H           15.9260     0.4060    12.9220 H             1 RES     
    6653 O           36.1990    20.4240     7.1430 O             1 RES     
    6654 H           36.8420    21.1750     7.2940 H             1 RES     
    6655 H           36.6630    19.5510     7.2930 H             1 RES     
    6656 O            8.6360     6.5270     9.2830 O             1 RES     
    6657 H            8.5650     7.3210     8.6800 H             1 RES     
    6658 H            7.7200     6.1850     9.4940 H             1 RES     
    6659 O            6.7490    37.4610     2.9100 O             1 RES     
    6660 H            5.7620    37.3650     2.7910 H             1 RES     
    6661 H            6.9370    38.1520     3.6080 H             1 RES     
    6662 O           24.6810     9.6190     8.5220 O             1 RES     
    6663 H           24.0330     9.7980     9.2620 H             1 RES     
    6664 H           25.2280    10.4390     8.3520 H             1 RES     
    6665 O           37.4050    12.1400     5.6070 O             1 RES     
    6666 H           38.3530    12.1670     5.9220 H             1 RES     
    6667 H           37.2150    12.9500     5.0510 H             1 RES     
    6668 O           14.8540    27.2790     0.5350 O             1 RES     
    6669 H           15.4810    26.5010     0.5340 H             1 RES     
    6670 H           14.2850    27.2480     1.3570 H             1 RES     
    6671 O            4.0320    20.6000    11.2310 O             1 RES     
    6672 H            3.5910    19.9990    11.8970 H             1 RES     
    6673 H            3.5630    21.4840    11.2180 H             1 RES     
    6674 O           40.6970    -4.2560    10.8460 O             1 RES     
    6675 H           41.3630    -4.7050    10.2510 H             1 RES     
    6676 H           40.7900    -4.6090    11.7770 H             1 RES     
    6677 O           39.7210    -3.3810    13.4680 O             1 RES     
    6678 H           38.7520    -3.6180    13.4070 H             1 RES     
    6679 H           39.8220    -2.5130    13.9540 H             1 RES     
    6680 O           34.8100    10.3380     8.7560 O             1 RES     
    6681 H           35.6720    10.7500     8.4620 H             1 RES     
    6682 H           34.0500    10.9360     8.5020 H             1 RES     
    6683 O           12.6570    36.9280    13.7090 O             1 RES     
    6684 H           13.6010    37.1440    13.9570 H             1 RES     
    6685 H           12.4890    35.9530    13.8540 H             1 RES     
    6686 O            8.3470    19.8390     8.8780 O             1 RES     
    6687 H            8.9230    20.6550     8.8970 H             1 RES     
    6688 H            8.9250    19.0220     8.8890 H             1 RES     
    6689 O           43.1040    31.1050     7.4380 O             1 RES     
    6690 H           42.3410    30.4930     7.6460 H             1 RES     
    6691 H           43.2040    31.1880     6.4460 H             1 RES     
    6692 O            7.9470     3.9160     9.2720 O             1 RES     
    6693 H            8.3510     3.2520     9.9010 H             1 RES     
    6694 H            6.9900     3.6770     9.1050 H             1 RES     
    6695 O           -3.1240    -3.2450     1.1720 O             1 RES     
    6696 H           -4.0950    -3.1420     1.3840 H             1 RES     
    6697 H           -2.9280    -4.2030     0.9590 H             1 RES     
    6698 O           -2.1920    36.5760     9.0070 O             1 RES     
    6699 H           -2.0060    37.5280     8.7680 H             1 RES     
    6700 H           -3.0610    36.2930     8.6010 H             1 RES     
    6701 O            2.4250    12.5240     3.7420 O             1 RES     
    6702 H            1.7830    13.2180     4.0640 H             1 RES     
    6703 H            1.9530    11.6460     3.6590 H             1 RES     
    6704 O           35.7680     1.1220     9.8180 O             1 RES     
    6705 H           35.4500     1.7510     9.1090 H             1 RES     
    6706 H           36.5470     0.5970     9.4730 H             1 RES     
    6707 O           34.1200    15.1940    10.4500 O             1 RES     
    6708 H           33.5360    14.4710    10.0830 H             1 RES     
    6709 H           33.6120    15.7170    11.1350 H             1 RES     
    6710 O           26.2990    11.4810     2.9610 O             1 RES     
    6711 H           26.8880    11.9320     2.2910 H             1 RES     
    6712 H           26.8580    10.9340     3.5830 H             1 RES     
    6713 O           47.8990    14.1350     6.0530 O             1 RES     
    6714 H           48.8800    14.2950     5.9450 H             1 RES     
    6715 H           47.4080    15.0030     5.9740 H             1 RES     
    6716 O           16.0100    -0.0890     3.8070 O             1 RES     
    6717 H           16.0180     0.5160     4.6020 H             1 RES     
    6718 H           16.1770    -1.0300     4.1020 H             1 RES     
    6719 O           36.8120     8.0660     6.0580 O             1 RES     
    6720 H           36.4910     8.9450     5.7080 H             1 RES     
    6721 H           37.7930     7.9760     5.8830 H             1 RES     
    6722 O           42.0990    16.6230     2.0530 O             1 RES     
    6723 H           41.8830    17.0890     1.1960 H             1 RES     
    6724 H           41.2730    16.1930     2.4170 H             1 RES     
    6725 O           49.8060     0.7450     6.1680 O             1 RES     
    6726 H           49.2920     1.4060     5.6220 H             1 RES     
    6727 H           50.7170     0.6230     5.7730 H             1 RES     
    6728 O            6.4430    -1.9130    11.7670 O             1 RES     
    6729 H            6.7620    -1.0010    12.0210 H             1 RES     
    6730 H            5.4670    -1.9950    11.9730 H             1 RES     
    6731 O           20.6860    33.4470     1.3430 O             1 RES     
    6732 H           20.6360    33.2280     2.3170 H             1 RES     
    6733 H           21.6410    33.5890     1.0820 H             1 RES     
    6734 O            8.3720     9.0460    14.2060 O             1 RES     
    6735 H            8.7830     8.1350    14.2020 H             1 RES     
    6736 H            7.3750     8.9620    14.2220 H             1 RES     
    6737 O           15.7020    37.9280    14.2230 O             1 RES     
    6738 H           16.6710    38.1650    14.1690 H             1 RES     
    6739 H           15.1500    38.7060    13.9230 H             1 RES     
    6740 O           48.8340     2.9900    13.4540 O             1 RES     
    6741 H           49.4010     3.4560    12.7760 H             1 RES     
    6742 H           48.6580     3.6050    14.2230 H             1 RES     
    6743 O            5.2160    17.7670     1.6240 O             1 RES     
    6744 H            4.8230    17.0430     1.0570 H             1 RES     
    6745 H            4.4820    18.2680     2.0820 H             1 RES     
    6746 O           44.0990    17.3750     6.2730 O             1 RES     
    6747 H           43.4340    16.6280     6.2770 H             1 RES     
    6748 H           45.0250    16.9980     6.3010 H             1 RES     
    6749 O           20.5330    -5.4620     5.6880 O             1 RES     
    6750 H           21.4460    -5.8650     5.6520 H             1 RES     
    6751 H           20.6040    -4.4670     5.6110 H             1 RES     
    6752 O           50.0490     7.0520    13.6550 O             1 RES     
    6753 H           49.9170     6.2400    14.2220 H             1 RES     
    6754 H           49.1580     7.4420    13.4190 H             1 RES     
    6755 O            1.5900     5.7380     1.9700 O             1 RES     
    6756 H            2.1140     6.4930     1.5770 H             1 RES     
    6757 H            0.6330     6.0120     2.0680 H             1 RES     
    6758 O           -0.7530     3.9080     7.7110 O             1 RES     
    6759 H           -0.1250     4.6680     7.5470 H             1 RES     
    6760 H           -1.6960     4.2270     7.6120 H             1 RES     
    6761 O           48.8170    -6.9400     5.1780 O             1 RES     
    6762 H           49.4460    -7.7030     5.3180 H             1 RES     
    6763 H           49.2150    -6.1050     5.5590 H             1 RES     
    6764 O           26.8900    16.1970    11.8140 O             1 RES     
    6765 H           27.1800    16.9350    12.4220 H             1 RES     
    6766 H           25.9470    16.3560    11.5220 H             1 RES     
    6767 O            3.3210    -0.1410     0.9630 O             1 RES     
    6768 H            2.3950     0.0750     0.6570 H             1 RES     
    6769 H            3.6260    -0.9910     0.5340 H             1 RES     
    6770 O           -2.7460    -3.8480     5.3750 O             1 RES     
    6771 H           -3.0660    -4.7560     5.6450 H             1 RES     
    6772 H           -2.5450    -3.3090     6.1930 H             1 RES     
    6773 O           -1.9120    27.7410     6.1960 O             1 RES     
    6774 H           -2.2410    28.6220     5.8570 H             1 RES     
    6775 H           -2.6790    27.1030     6.2680 H             1 RES     
    6776 O            1.4720     5.0850     5.2620 O             1 RES     
    6777 H            2.0010     4.2370     5.2630 H             1 RES     
    6778 H            0.5040     4.8740     5.4020 H             1 RES     
    6779 O           36.2220    15.2030     2.2080 O             1 RES     
    6780 H           37.1340    15.6120     2.2080 H             1 RES     
    6781 H           35.5320    15.9260     2.2080 H             1 RES     
    6782 O           22.2760    37.2130    14.2070 O             1 RES     
    6783 H           21.5440    37.8940    14.2050 H             1 RES     
    6784 H           23.1620    37.6760    14.2210 H             1 RES     
    6785 O           11.2460     4.3220    10.9380 O             1 RES     
    6786 H           10.6230     4.9190    11.4410 H             1 RES     
    6787 H           11.5540     3.5810    11.5360 H             1 RES     
    6788 O            7.5270    12.5700     9.9930 O             1 RES     
    6789 H            7.4690    11.5940    10.1990 H             1 RES     
    6790 H            7.0500    13.0900    10.7020 H             1 RES     
    6791 O           32.2940    -2.3830     3.4950 O             1 RES     
    6792 H           31.3430    -2.0990     3.6130 H             1 RES     
    6793 H           32.8160    -1.6370     3.0800 H             1 RES     
    6794 O           -5.1250    32.7700     5.9300 O             1 RES     
    6795 H           -6.1130    32.6730     5.8190 H             1 RES     
    6796 H           -4.6730    32.6190     5.0510 H             1 RES     
    6797 O           22.5270    -4.5070     7.8230 O             1 RES     
    6798 H           21.6040    -4.2050     7.5870 H             1 RES     
    6799 H           23.1660    -4.2180     7.1100 H             1 RES     
    6800 O           10.7330    13.4980     3.0240 O             1 RES     
    6801 H           10.0070    13.7270     2.3760 H             1 RES     
    6802 H           10.9070    12.5140     2.9960 H             1 RES     
    6803 O           29.9930    29.3580    12.9510 O             1 RES     
    6804 H           29.9290    28.3810    13.1510 H             1 RES     
    6805 H           30.9460    29.6000    12.7660 H             1 RES     
    6806 O           40.2830     9.5520    14.0270 O             1 RES     
    6807 H           40.4270    10.5270    13.8600 H             1 RES     
    6808 H           39.3170     9.3860    14.2240 H             1 RES     
    6809 O           22.0380    11.0780     6.3170 O             1 RES     
    6810 H           22.1930    11.8290     5.6760 H             1 RES     
    6811 H           21.7220    10.2720     5.8160 H             1 RES     
    6812 O           24.0820    35.2200     4.2980 O             1 RES     
    6813 H           24.9740    35.6290     4.4820 H             1 RES     
    6814 H           23.4170    35.5530     4.9670 H             1 RES     
    6815 O           19.6160    -1.5100    12.7890 O             1 RES     
    6816 H           19.5830    -2.4480    13.1320 H             1 RES     
    6817 H           20.5690    -1.2320    12.6690 H             1 RES     
    6818 O           11.8090    -4.5040    10.8740 O             1 RES     
    6819 H           11.1060    -4.5830    10.1680 H             1 RES     
    6820 H           11.6140    -3.7120    11.4530 H             1 RES     
    6821 O            1.7360    30.5330     1.2350 O             1 RES     
    6822 H            2.4650    30.4860     0.5530 H             1 RES     
    6823 H            1.3410    29.6240     1.3660 H             1 RES     
    6824 O           -5.4750    28.9160     2.5560 O             1 RES     
    6825 H           -5.1580    28.2050     3.1830 H             1 RES     
    6826 H           -5.4290    29.8060     3.0090 H             1 RES     
    6827 O            4.9170    33.2450     1.3460 O             1 RES     
    6828 H            5.9010    33.4000     1.4210 H             1 RES     
    6829 H            4.7260    32.6920     0.5340 H             1 RES     
    6830 O            6.7040    21.6490     6.1150 O             1 RES     
    6831 H            6.3860    22.0270     5.2460 H             1 RES     
    6832 H            6.5320    20.6640     6.1340 H             1 RES     
    6833 O           35.0010    30.1400     1.3430 O             1 RES     
    6834 H           35.0280    31.1310     1.4700 H             1 RES     
    6835 H           34.0500    29.8310     1.3270 H             1 RES     
    6836 O           47.7140    30.1760     3.5890 O             1 RES     
    6837 H           47.9290    29.2680     3.2320 H             1 RES     
    6838 H           46.8420    30.4860     3.2100 H             1 RES     
    6839 O           11.3740    35.3230     6.3500 O             1 RES     
    6840 H           11.2880    36.0280     5.6470 H             1 RES     
    6841 H           12.2170    35.4700     6.8690 H             1 RES     
    6842 O           40.3670    -3.1790     7.3140 O             1 RES     
    6843 H           39.6030    -3.6760     6.9040 H             1 RES     
    6844 H           40.0800    -2.2460     7.5340 H             1 RES     
    6845 O            9.1320    22.9120    11.6630 O             1 RES     
    6846 H            9.5230    22.9900    10.7470 H             1 RES     
    6847 H            8.4800    23.6560    11.8130 H             1 RES     
    6848 O           36.1800     8.2010    10.1410 O             1 RES     
    6849 H           35.8300     9.1260    10.2840 H             1 RES     
    6850 H           36.9750     8.2340     9.5340 H             1 RES     
    6851 O           35.8940    38.6790     8.9830 O             1 RES     
    6852 H           36.2690    38.0400     8.3110 H             1 RES     
    6853 H           35.7630    39.5740     8.5560 H             1 RES     
    6854 O           30.3500    18.4760    13.3440 O             1 RES     
    6855 H           30.3990    19.4310    13.0530 H             1 RES     
    6856 H           31.2040    18.2200    13.7970 H             1 RES     
    6857 O           29.0270     3.3040     3.6350 O             1 RES     
    6858 H           29.8350     3.4230     4.2110 H             1 RES     
    6859 H           29.1980     2.5820     2.9640 H             1 RES     
    6860 O           10.9230    10.7010    12.8320 O             1 RES     
    6861 H           10.5270    10.1550    12.0950 H             1 RES     
    6862 H           11.6980    11.2260    12.4800 H             1 RES     
    6863 O           44.1860    34.5850     4.5990 O             1 RES     
    6864 H           43.5990    33.7760     4.6180 H             1 RES     
    6865 H           44.7640    34.5970     5.4160 H             1 RES     
    6866 O           13.9450    33.5170    12.8330 O             1 RES     
    6867 H           13.1860    34.1490    12.6790 H             1 RES     
    6868 H           13.6610    32.8050    13.4750 H             1 RES     
    6869 O            9.3050    33.4850    13.5030 O             1 RES     
    6870 H            9.6260    34.2000    12.8830 H             1 RES     
    6871 H            8.3190    33.5800    13.6400 H             1 RES     
    6872 O           36.7070    20.7410     1.0650 O             1 RES     
    6873 H           35.8940    20.7980     1.6430 H             1 RES     
    6874 H           36.8780    21.6300     0.6400 H             1 RES     
    6875 O            5.0300    38.0810     7.3990 O             1 RES     
    6876 H            5.4030    38.2760     6.4930 H             1 RES     
    6877 H            4.1870    38.6030     7.5320 H             1 RES     
    6878 O            1.9890    36.8640     6.5390 O             1 RES     
    6879 H            2.4710    37.0610     7.3920 H             1 RES     
    6880 H            2.3420    37.4530     5.8120 H             1 RES     
    6881 O           31.4180    -4.6790     9.5540 O             1 RES     
    6882 H           32.2940    -4.3340     9.8880 H             1 RES     
    6883 H           31.1280    -4.1430     8.7600 H             1 RES     
    6884 O           16.1300    38.5990    11.3730 O             1 RES     
    6885 H           16.5610    38.8060    10.4950 H             1 RES     
    6886 H           15.1800    38.3250    11.2220 H             1 RES     
    6887 O           19.9970    18.1160    13.2470 O             1 RES     
    6888 H           19.3160    17.3910    13.1480 H             1 RES     
    6889 H           20.8980    17.7100    13.4010 H             1 RES     
    6890 O           30.7540    13.8070     6.0780 O             1 RES     
    6891 H           30.3220    12.9060     6.0790 H             1 RES     
    6892 H           31.7480    13.7010     6.1190 H             1 RES     
    6893 O           24.4070    -5.4340     8.4930 O             1 RES     
    6894 H           24.5960    -6.4040     8.3460 H             1 RES     
    6895 H           25.2690    -4.9370     8.5890 H             1 RES     
    6896 O           13.2110    -7.3690    11.2990 O             1 RES     
    6897 H           12.2730    -7.7070    11.3610 H             1 RES     
    6898 H           13.2050    -6.3700    11.2680 H             1 RES     
    6899 O            1.0400    33.9710     3.4380 O             1 RES     
    6900 H            1.1210    33.8920     4.4310 H             1 RES     
    6901 H            0.4700    33.2280     3.0890 H             1 RES     
    6902 O           42.7110     6.1480     7.1330 O             1 RES     
    6903 H           41.8820     6.6320     7.4110 H             1 RES     
    6904 H           42.8100     5.3150     7.6770 H             1 RES     
    6905 O           15.5870    36.6750     8.6120 O             1 RES     
    6906 H           15.7490    36.9880     9.5480 H             1 RES     
    6907 H           14.7830    37.1390     8.2400 H             1 RES     
    6908 O           45.6280    21.0600     0.5340 O             1 RES     
    6909 H           44.8810    21.7230     0.5510 H             1 RES     
    6910 H           46.5040    21.5430     0.5500 H             1 RES     
    6911 O           -0.0790     0.0690     7.0220 O             1 RES     
    6912 H           -0.2600    -0.5120     6.2300 H             1 RES     
    6913 H           -0.6190     0.9080     6.9520 H             1 RES     
    6914 O           26.7720    23.4920     5.4460 O             1 RES     
    6915 H           27.1440    23.5510     6.3710 H             1 RES     
    6916 H           26.8170    22.5450     5.1270 H             1 RES     
    6917 O           49.5660    -7.5730     9.7490 O             1 RES     
    6918 H           48.9680    -7.7080     8.9600 H             1 RES     
    6919 H           50.2160    -6.8380     9.5540 H             1 RES     
    6920 O           -0.8900    10.1310     9.6680 O             1 RES     
    6921 H           -1.7470    10.4680     9.2820 H             1 RES     
    6922 H           -1.0170     9.1950     9.9990 H             1 RES     
    6923 O           29.6630    31.7020     8.3590 O             1 RES     
    6924 H           29.9760    31.5070     7.4300 H             1 RES     
    6925 H           29.3640    30.8530     8.7950 H             1 RES     
    6926 O           36.6570     3.8900     9.0520 O             1 RES     
    6927 H           36.3780     4.1230     8.1210 H             1 RES     
    6928 H           37.2440     3.0800     9.0310 H             1 RES     
    6929 O           44.2700    37.2130    13.0820 O             1 RES     
    6930 H           45.2380    37.1700    12.8370 H             1 RES     
    6931 H           44.1410    37.8770    13.8190 H             1 RES     
    6932 O           15.4870    26.9850     4.7320 O             1 RES     
    6933 H           15.5020    25.9920     4.6170 H             1 RES     
    6934 H           15.9830    27.2320     5.5650 H             1 RES     
    6935 O           50.0650    18.7370    13.7530 O             1 RES     
    6936 H           49.8300    19.5880    14.2230 H             1 RES     
    6937 H           49.5230    18.6560    12.9170 H             1 RES     
    6938 O           19.0530     9.9120     2.3790 O             1 RES     
    6939 H           18.5800    10.7100     2.0080 H             1 RES     
    6940 H           18.4340     9.1260     2.3760 H             1 RES     
    6941 O           29.7260    20.3200     0.5360 O             1 RES     
    6942 H           29.6520    21.1320     1.1140 H             1 RES     
    6943 H           28.9940    19.6780     0.7660 H             1 RES     
    6944 O            8.1220    21.2970    13.6620 O             1 RES     
    6945 H            7.1610    21.3770    13.3980 H             1 RES     
    6946 H            8.3040    20.3660    13.9790 H             1 RES     
    6947 O            0.3170    -4.6630    12.0680 O             1 RES     
    6948 H            0.3270    -5.6610    12.1260 H             1 RES     
    6949 H           -0.6290    -4.3390    12.0480 H             1 RES     
    6950 O           44.3140    22.9540     7.0760 O             1 RES     
    6951 H           44.4700    22.8890     8.0610 H             1 RES     
    6952 H           44.1020    22.0480     6.7110 H             1 RES     
    6953 O           42.2320    25.5150     6.8070 O             1 RES     
    6954 H           41.7090    26.1450     7.3810 H             1 RES     
    6955 H           43.0550    25.9740     6.4730 H             1 RES     
    6956 O           29.1950     6.6380     3.2580 O             1 RES     
    6957 H           29.5950     7.5490     3.3490 H             1 RES     
    6958 H           29.1750     6.1910     4.1530 H             1 RES     
    6959 O            4.1950    -2.0090     2.4930 O             1 RES     
    6960 H            3.8440    -2.9290     2.6650 H             1 RES     
    6961 H            3.5720    -1.3340     2.8880 H             1 RES     
    6962 O            7.3210    31.8650     8.5430 O             1 RES     
    6963 H            8.1400    32.4370     8.5790 H             1 RES     
    6964 H            6.5070    32.4450     8.5540 H             1 RES     
    6965 O           36.2060    14.2300    13.4630 O             1 RES     
    6966 H           35.2450    14.4720    13.3340 H             1 RES     
    6967 H           36.4540    13.4980    12.8280 H             1 RES     
    6968 O           35.4260    35.1810    11.7890 O             1 RES     
    6969 H           35.1670    34.2170    11.8290 H             1 RES     
    6970 H           36.4220    35.2610    11.8420 H             1 RES     
    6971 O           -4.2040    26.8020     0.8460 O             1 RES     
    6972 H           -3.4820    27.4930     0.8300 H             1 RES     
    6973 H           -5.0950    27.2520     0.9050 H             1 RES     
    6974 O           33.1150     9.2250    13.1820 O             1 RES     
    6975 H           33.4460     8.4300    13.6880 H             1 RES     
    6976 H           33.7410     9.9930    13.3210 H             1 RES     
    6977 O           48.9170    19.6240    10.1860 O             1 RES     
    6978 H           48.4170    20.4670     9.9940 H             1 RES     
    6979 H           49.8770    19.7390     9.9310 H             1 RES     
    6980 O           34.4520     7.6830    11.8800 O             1 RES     
    6981 H           34.0220     8.1190    11.0900 H             1 RES     
    6982 H           34.9930     6.8990    11.5750 H             1 RES     
    6983 O            8.0060    16.1570    12.5450 O             1 RES     
    6984 H            7.4550    16.2750    13.3710 H             1 RES     
    6985 H            8.9330    15.8780    12.7990 H             1 RES     
    6986 O           13.4160    33.3880     5.6960 O             1 RES     
    6987 H           13.9440    33.8460     4.9820 H             1 RES     
    6988 H           13.6230    33.8020     6.5820 H             1 RES     
    6989 O           11.3350    21.6320     6.8080 O             1 RES     
    6990 H           10.5070    22.0030     7.2260 H             1 RES     
    6991 H           11.2470    20.6400     6.7170 H             1 RES     
    6992 O           30.4410    -1.5260     6.4780 O             1 RES     
    6993 H           30.7160    -2.1980     5.7910 H             1 RES     
    6994 H           29.4500    -1.5640     6.6040 H             1 RES     
    6995 O           34.1050    -6.8510     2.9650 O             1 RES     
    6996 H           33.7610    -5.9690     2.6440 H             1 RES     
    6997 H           33.3360    -7.4340     3.2280 H             1 RES     
    6998 O           37.2780    25.0110    11.2370 O             1 RES     
    6999 H           37.1040    24.0290    11.3040 H             1 RES     
    7000 H           36.4220    25.5120    11.3710 H             1 RES     
    7001 O           27.5900     0.7500     3.8740 O             1 RES     
    7002 H           28.5760     0.7370     4.0390 H             1 RES     
    7003 H           27.3060     1.6770     3.6260 H             1 RES     
    7004 O           -2.0370    12.6910     9.8190 O             1 RES     
    7005 H           -1.3610    12.4150    10.5020 H             1 RES     
    7006 H           -2.3320    13.6300    10.0020 H             1 RES     
    7007 O           19.9100    39.0220     3.8010 O             1 RES     
    7008 H           20.5060    38.9850     3.0000 H             1 RES     
    7009 H           19.9910    38.1700     4.3170 H             1 RES     
    7010 O           -0.3330    31.9850     9.5410 O             1 RES     
    7011 H            0.1840    31.6650    10.3340 H             1 RES     
    7012 H           -0.1820    31.3640     8.7710 H             1 RES     
    7013 O           38.1910    29.7410     5.2300 O             1 RES     
    7014 H           38.8680    30.0840     4.5800 H             1 RES     
    7015 H           37.2710    29.8990     4.8700 H             1 RES     
    7016 O           15.4100     9.5580    10.7980 O             1 RES     
    7017 H           15.6690     8.6510    11.1280 H             1 RES     
    7018 H           14.7860     9.4660    10.0220 H             1 RES     
    7019 O           13.5690     9.4210    12.0180 O             1 RES     
    7020 H           12.5910     9.3200    11.8390 H             1 RES     
    7021 H           13.7030     9.8260    12.9230 H             1 RES     
    7022 O            2.3160    32.6540     6.8970 O             1 RES     
    7023 H            3.1630    32.2220     7.2050 H             1 RES     
    7024 H            2.4260    32.9690     5.9540 H             1 RES     
    7025 O           29.7110     7.0660     8.5630 O             1 RES     
    7026 H           29.9880     8.0010     8.3440 H             1 RES     
    7027 H           30.1750     6.7680     9.3970 H             1 RES     
    7028 O           12.0110    -2.4980     1.1800 O             1 RES     
    7029 H           12.4580    -2.2690     2.0440 H             1 RES     
    7030 H           12.6890    -2.8520     0.5360 H             1 RES     
    7031 O           10.4590    38.3080    14.0200 O             1 RES     
    7032 H           10.5100    37.3100    13.9970 H             1 RES     
    7033 H           11.3840    38.6890    14.0550 H             1 RES     
    7034 O            1.6980    31.5690    11.9330 O             1 RES     
    7035 H            1.7920    30.7990    12.5630 H             1 RES     
    7036 H            1.7820    32.4270    12.4400 H             1 RES     
    7037 O           18.5290    16.0140     1.5100 O             1 RES     
    7038 H           17.9060    16.5980     2.0300 H             1 RES     
    7039 H           18.3210    16.0900     0.5340 H             1 RES     
    7040 O           -4.1070    26.0620    14.1480 O             1 RES     
    7041 H           -3.7980    27.0090    14.2240 H             1 RES     
    7042 H           -3.3220    25.4660    13.9800 H             1 RES     
    7043 O           52.0380     0.4210     7.9370 O             1 RES     
    7044 H           51.4180     1.1890     7.7810 H             1 RES     
    7045 H           51.6900    -0.3910     7.4660 H             1 RES     
    7046 O           -1.1000    23.8640     7.4620 O             1 RES     
    7047 H           -2.0750    24.0760     7.5180 H             1 RES     
    7048 H           -0.5780    24.7130     7.3810 H             1 RES     
    7049 O           38.3420    24.3190     4.5050 O             1 RES     
    7050 H           38.9860    25.0810     4.5570 H             1 RES     
    7051 H           37.4300    24.6660     4.2860 H             1 RES     
    7052 O           29.7450     2.0090     0.9120 O             1 RES     
    7053 H           29.4630     1.0940     1.1990 H             1 RES     
    7054 H           28.9590     2.4990     0.5350 H             1 RES     
    7055 O           15.7090    14.9880    10.7850 O             1 RES     
    7056 H           15.5230    15.3590     9.8760 H             1 RES     
    7057 H           14.9110    15.1250    11.3720 H             1 RES     
    7058 O           47.6960     0.9610     0.7360 O             1 RES     
    7059 H           47.6700     0.8180     1.7240 H             1 RES     
    7060 H           48.1850     1.8100     0.5340 H             1 RES     
    7061 O           42.7900    -7.1360     9.3880 O             1 RES     
    7062 H           42.6920    -6.1820     9.1100 H             1 RES     
    7063 H           41.9870    -7.4130     9.9180 H             1 RES     
    7064 O           10.2730     7.9970     5.8480 O             1 RES     
    7065 H           10.4930     7.0390     5.6670 H             1 RES     
    7066 H            9.3010     8.0810     6.0700 H             1 RES     
    7067 O           13.4120     3.8240     7.2340 O             1 RES     
    7068 H           13.7060     3.9840     8.1760 H             1 RES     
    7069 H           13.5950     4.6390     6.6840 H             1 RES     
    7070 O           23.9860     9.5590     5.7380 O             1 RES     
    7071 H           24.0780    10.2100     6.4900 H             1 RES     
    7072 H           23.9130     8.6310     6.1050 H             1 RES     
    7073 O           28.6760    27.6820     2.3120 O             1 RES     
    7074 H           28.0830    27.1970     1.6700 H             1 RES     
    7075 H           29.2390    28.3410     1.8140 H             1 RES     
    7076 O           28.1010     9.8430     6.2010 O             1 RES     
    7077 H           27.1270    10.0500     6.1130 H             1 RES     
    7078 H           28.2580     9.3280     7.0440 H             1 RES     
    7079 O           -3.8160    16.1920     2.2690 O             1 RES     
    7080 H           -3.0370    16.7870     2.4660 H             1 RES     
    7081 H           -4.6670    16.6920     2.4280 H             1 RES     
    7082 O           27.8310    14.8920     4.3560 O             1 RES     
    7083 H           28.2090    15.6750     4.8500 H             1 RES     
    7084 H           26.9580    14.6280     4.7670 H             1 RES     
    7085 O           46.3730    27.9340    13.5890 O             1 RES     
    7086 H           45.6750    27.2280    13.7060 H             1 RES     
    7087 H           46.1050    28.5500    12.8480 H             1 RES     
    7088 O           18.7030    12.2090     9.4770 O             1 RES     
    7089 H           19.1700    11.7480     8.7230 H             1 RES     
    7090 H           17.9110    12.7080     9.1240 H             1 RES     
    7091 O            1.8800    36.4930    12.7090 O             1 RES     
    7092 H            2.4620    36.0350    13.3800 H             1 RES     
    7093 H            1.9890    37.4840    12.7940 H             1 RES     
    7094 O           17.0740    17.0890     5.6720 O             1 RES     
    7095 H           16.2220    17.6110     5.6800 H             1 RES     
    7096 H           17.8520    17.7180     5.6980 H             1 RES     
    7097 O           45.5240    35.8840     9.4120 O             1 RES     
    7098 H           45.2780    36.8360     9.2300 H             1 RES     
    7099 H           44.6940    35.3270     9.4530 H             1 RES     
    7100 O           39.6410    23.5890    10.7800 O             1 RES     
    7101 H           39.5220    22.7240    10.2930 H             1 RES     
    7102 H           39.2250    23.5200    11.6870 H             1 RES     
    7103 O            4.6050     4.6540     1.5150 O             1 RES     
    7104 H            4.8440     3.8820     2.1030 H             1 RES     
    7105 H            5.3970     5.2580     1.4180 H             1 RES     
    7106 O           41.8570     7.7520     5.4720 O             1 RES     
    7107 H           40.8890     7.8880     5.6810 H             1 RES     
    7108 H           42.3020     8.6400     5.3560 H             1 RES     
    7109 O           35.0820    -3.1520     5.1000 O             1 RES     
    7110 H           35.3700    -4.0780     4.8580 H             1 RES     
    7111 H           34.4220    -2.8210     4.4260 H             1 RES     
    7112 O           42.5960    -2.8100     4.7100 O             1 RES     
    7113 H           42.7000    -1.9430     4.2250 H             1 RES     
    7114 H           43.4940    -3.1410     4.9980 H             1 RES     
    7115 O           52.0480    -6.9830     3.7950 O             1 RES     
    7116 H           51.3610    -7.7080     3.7810 H             1 RES     
    7117 H           51.9410    -6.4370     4.6260 H             1 RES     
    7118 O           45.3530    12.6780     2.1660 O             1 RES     
    7119 H           45.7120    13.5890     1.9610 H             1 RES     
    7120 H           45.9530    12.2240     2.8260 H             1 RES     
    7121 O            2.4670     7.5660     4.5670 O             1 RES     
    7122 H            2.4330     7.2760     3.6110 H             1 RES     
    7123 H            3.3260     8.0490     4.7390 H             1 RES     
    7124 O           16.3300    33.1540     4.4490 O             1 RES     
    7125 H           16.3480    32.3130     3.9080 H             1 RES     
    7126 H           15.8750    33.8760     3.9280 H             1 RES     
    7127 O           -4.0170    21.5460     5.6790 O             1 RES     
    7128 H           -4.3500    22.2330     6.3240 H             1 RES     
    7129 H           -3.1450    21.8470     5.2920 H             1 RES     
    7130 O           13.5430    32.2220     3.4210 O             1 RES     
    7131 H           13.0090    31.6720     2.7790 H             1 RES     
    7132 H           14.2290    32.7490     2.9190 H             1 RES     
    7133 O           16.1940    22.2740    11.1340 O             1 RES     
    7134 H           16.7100    22.8670    10.5170 H             1 RES     
    7135 H           16.1820    22.6750    12.0500 H             1 RES     
    7136 O            2.7040    16.3500    14.2190 O             1 RES     
    7137 H            2.9770    15.3890    14.2200 H             1 RES     
    7138 H            1.7050    16.4140    14.2160 H             1 RES     
    7139 O           10.2160     7.9420    10.5810 O             1 RES     
    7140 H           10.9360     8.6340    10.5580 H             1 RES     
    7141 H           10.5930     7.0590    10.3000 H             1 RES     
    7142 O           34.8820    18.6360     6.0830 O             1 RES     
    7143 H           35.0580    18.0750     6.8900 H             1 RES     
    7144 H           34.4810    18.0700     5.3630 H             1 RES     
    7145 O           -5.0420    14.0250     6.7980 O             1 RES     
    7146 H           -5.1990    14.4250     5.8960 H             1 RES     
    7147 H           -5.9150    13.7330     7.1900 H             1 RES     
    7148 O           19.6550    -5.7320    13.9070 O             1 RES     
    7149 H           20.6420    -5.8880    13.9060 H             1 RES     
    7150 H           19.4720    -4.7490    13.9040 H             1 RES     
    7151 O           45.3520    10.0260    12.8200 O             1 RES     
    7152 H           45.3400    10.1490    13.8120 H             1 RES     
    7153 H           44.4230    10.1200    12.4610 H             1 RES     
    7154 O            5.1910    -7.2460     1.9870 O             1 RES     
    7155 H            4.3350    -6.7610     1.8120 H             1 RES     
    7156 H            5.5730    -7.5710     1.1220 H             1 RES     
    7157 O            7.1660     2.5140    13.1700 O             1 RES     
    7158 H            7.6920     1.8090    12.6960 H             1 RES     
    7159 H            6.4350     2.8440    12.5730 H             1 RES     
    7160 O           46.1610    28.7080     5.1150 O             1 RES     
    7161 H           45.6580    29.0990     5.8860 H             1 RES     
    7162 H           47.1440    28.7980     5.2770 H             1 RES     
    7163 O           10.3740    13.0290     8.9460 O             1 RES     
    7164 H           11.3310    12.7850     9.1030 H             1 RES     
    7165 H            9.8210    12.1970     8.9010 H             1 RES     
    7166 O           45.3810    13.6330     4.6990 O             1 RES     
    7167 H           46.3280    13.3130     4.7010 H             1 RES     
    7168 H           45.3660    14.6330     4.6930 H             1 RES     
    7169 O           -2.6620     7.4600     2.1840 O             1 RES     
    7170 H           -3.2420     8.1030     2.6840 H             1 RES     
    7171 H           -1.7030     7.7230     2.2890 H             1 RES     
    7172 O           16.7140    32.1440     0.5700 O             1 RES     
    7173 H           15.9620    32.2220     1.2240 H             1 RES     
    7174 H           17.0280    31.1950     0.5340 H             1 RES     
    7175 O            6.4230    -1.7310     4.8580 O             1 RES     
    7176 H            7.2180    -1.2140     4.5450 H             1 RES     
    7177 H            6.6050    -2.7110     4.7670 H             1 RES     
    7178 O           -4.0310    -6.5940    12.5290 O             1 RES     
    7179 H           -4.2160    -7.3390    11.8890 H             1 RES     
    7180 H           -3.8420    -5.7550    12.0200 H             1 RES     
    7181 O           -2.3290    30.8840     4.3580 O             1 RES     
    7182 H           -2.2730    30.8730     5.3560 H             1 RES     
    7183 H           -3.0240    31.5420     4.0700 H             1 RES     
    7184 O           32.4500    -4.7510     3.9240 O             1 RES     
    7185 H           31.9110    -5.5910     3.9760 H             1 RES     
    7186 H           33.1730    -4.7750     4.6150 H             1 RES     
    7187 O           28.1140    -0.1250     7.6100 O             1 RES     
    7188 H           28.1650     0.5560     6.8800 H             1 RES     
    7189 H           27.2420    -0.0340     8.0920 H             1 RES     
    7190 O           27.8790    30.8540     7.1710 O             1 RES     
    7191 H           27.8110    30.5470     6.2230 H             1 RES     
    7192 H           27.6850    31.8340     7.2200 H             1 RES     
    7193 O           11.0340    -1.5380     3.5530 O             1 RES     
    7194 H           10.9240    -2.5300     3.5980 H             1 RES     
    7195 H           10.5690    -1.1140     4.3300 H             1 RES     
    7196 O           47.6630    -2.9270     0.8770 O             1 RES     
    7197 H           46.9810    -2.2820     0.5340 H             1 RES     
    7198 H           48.4300    -2.4220     1.2720 H             1 RES     
    7199 O           50.7050    16.3670     8.3930 O             1 RES     
    7200 H           51.5190    15.8080     8.2370 H             1 RES     
    7201 H           49.9020    15.7760     8.4620 H             1 RES     
    7202 O            3.8350    35.3500     7.6170 O             1 RES     
    7203 H            3.8620    34.4120     7.2740 H             1 RES     
    7204 H            4.3740    35.4140     8.4580 H             1 RES     
    7205 O            3.7880    34.3470     2.8790 O             1 RES     
    7206 H            3.2310    33.7670     3.4730 H             1 RES     
    7207 H            3.2980    35.1980     2.6900 H             1 RES     
    7208 O            6.7930    -4.8110    11.3030 O             1 RES     
    7209 H            7.4440    -5.5650    11.3890 H             1 RES     
    7210 H            6.4990    -4.5180    12.2130 H             1 RES     
    7211 O           32.7780    34.9650     6.0000 O             1 RES     
    7212 H           32.3630    35.3770     6.8100 H             1 RES     
    7213 H           33.1000    34.0440     6.2210 H             1 RES     
    7214 O           -5.1590    29.7030    13.8450 O             1 RES     
    7215 H           -5.2100    30.2190    12.9910 H             1 RES     
    7216 H           -6.0840    29.4760    14.1530 H             1 RES     
    7217 O           30.7820    28.6850     8.9990 O             1 RES     
    7218 H           30.7370    28.1220     8.1750 H             1 RES     
    7219 H           31.4950    28.3340     9.6060 H             1 RES     
    7220 O           35.8520    17.9970    12.8170 O             1 RES     
    7221 H           35.0760    18.0650    12.1910 H             1 RES     
    7222 H           36.5880    18.5950    12.5030 H             1 RES     
    7223 O            8.9150    -4.4790     9.4200 O             1 RES     
    7224 H            8.7250    -4.8480     8.5110 H             1 RES     
    7225 H            8.4740    -3.5860     9.5170 H             1 RES     
    7226 O           34.1590    37.6370    13.0940 O             1 RES     
    7227 H           34.9410    37.1020    12.7770 H             1 RES     
    7228 H           33.5540    37.8330    12.3220 H             1 RES     
    7229 O           23.9660    20.0570     5.9310 O             1 RES     
    7230 H           24.4810    20.6410     6.5570 H             1 RES     
    7231 H           23.3280    19.4900     6.4530 H             1 RES     
    7232 O           48.8900    -4.0170     8.8260 O             1 RES     
    7233 H           49.0060    -5.0040     8.7250 H             1 RES     
    7234 H           49.5880    -3.6600     9.4480 H             1 RES     
    7235 O           12.4140    16.8910     3.8100 O             1 RES     
    7236 H           11.9240    17.1870     2.9900 H             1 RES     
    7237 H           12.4060    15.8930     3.8620 H             1 RES     
    7238 O           24.7610    12.3600    13.5740 O             1 RES     
    7239 H           24.6600    13.3530    13.5320 H             1 RES     
    7240 H           25.4260    12.0630    12.8880 H             1 RES     
    7241 O           44.8000    -6.6830    12.1120 O             1 RES     
    7242 H           45.3830    -5.9350    11.7970 H             1 RES     
    7243 H           43.9340    -6.6640    11.6130 H             1 RES     
    7244 O           10.8810     4.1150     8.7790 O             1 RES     
    7245 H           11.6720     3.5100     8.8680 H             1 RES     
    7246 H           11.1910     5.0610     8.6900 H             1 RES     
    7247 O           24.8330    22.0980     4.2800 O             1 RES     
    7248 H           24.0080    21.5350     4.2860 H             1 RES     
    7249 H           24.5820    23.0610     4.3780 H             1 RES     
    7250 O           16.8820    13.1420    11.0280 O             1 RES     
    7251 H           17.2910    12.8330    11.8860 H             1 RES     
    7252 H           16.1650    12.5030    10.7500 H             1 RES     
    7253 O           14.3850    24.9130     3.0580 O             1 RES     
    7254 H           14.8590    25.2770     2.2570 H             1 RES     
    7255 H           13.4180    25.1660     3.0170 H             1 RES     
    7256 O           17.1060    38.1870     7.1390 O             1 RES     
    7257 H           17.8990    37.5950     7.0020 H             1 RES     
    7258 H           17.3940    39.0310     7.5930 H             1 RES     
    7259 O           13.9780    15.7920     5.3980 O             1 RES     
    7260 H           14.8640    15.8830     5.8510 H             1 RES     
    7261 H           13.7950    14.8260     5.2140 H             1 RES     
    7262 O           -1.9310    39.1070    13.3730 O             1 RES     
    7263 H           -2.2640    38.1660    13.3300 H             1 RES     
    7264 H           -2.7090    39.7360    13.3810 H             1 RES     
    7265 O           20.9590    23.0890     9.8460 O             1 RES     
    7266 H           21.4600    22.8710    10.6830 H             1 RES     
    7267 H           21.2280    22.4550     9.1210 H             1 RES     
    7268 O           -2.7470    22.2120     1.5050 O             1 RES     
    7269 H           -3.6360    22.6470     1.3600 H             1 RES     
    7270 H           -2.8270    21.2280     1.3480 H             1 RES     
    7271 O           -0.9630    37.2840     4.5620 O             1 RES     
    7272 H           -1.1720    38.1180     4.0530 H             1 RES     
    7273 H           -0.2550    37.4770     5.2420 H             1 RES     
    7274 O           51.4740    10.9360     7.8210 O             1 RES     
    7275 H           52.0490    10.1470     8.0360 H             1 RES     
    7276 H           52.0490    11.7480     7.7110 H             1 RES     
    7277 O           29.5130     3.7970    12.8890 O             1 RES     
    7278 H           29.9610     4.1600    12.0730 H             1 RES     
    7279 H           29.2510     2.8450    12.7310 H             1 RES     
    7280 O           32.8110    34.8800     3.7850 O             1 RES     
    7281 H           32.0330    35.4760     3.9790 H             1 RES     
    7282 H           32.5120    33.9260     3.7940 H             1 RES     
    7283 O           24.7260    35.0330     1.3400 O             1 RES     
    7284 H           24.8900    34.0520     1.2360 H             1 RES     
    7285 H           25.2470    35.3780     2.1200 H             1 RES     
    7286 O           38.9660     7.3020     9.6100 O             1 RES     
    7287 H           39.6180     7.7510     9.0000 H             1 RES     
    7288 H           39.4530     6.6650    10.2080 H             1 RES     
    7289 O           49.0460    25.8370    14.1200 O             1 RES     
    7290 H           49.8610    26.3940    13.9670 H             1 RES     
    7291 H           48.2470    26.4320    14.2120 H             1 RES     
    7292 O           15.8180     2.4370     9.6240 O             1 RES     
    7293 H           15.8490     2.8740     8.7250 H             1 RES     
    7294 H           14.9900     2.7230    10.1070 H             1 RES     
    7295 O           28.6650    -3.6470    12.7910 O             1 RES     
    7296 H           29.2080    -2.8830    12.4420 H             1 RES     
    7297 H           27.7370    -3.5920    12.4220 H             1 RES     
    7298 O           23.9060    20.1160    11.8020 O             1 RES     
    7299 H           23.1010    20.0720    11.2110 H             1 RES     
    7300 H           24.4400    20.9310    11.5790 H             1 RES     
    7301 O           35.8610    -0.5400    14.0870 O             1 RES     
    7302 H           36.6940    -0.0040    14.2180 H             1 RES     
    7303 H           35.3360    -0.1600    13.3260 H             1 RES     
    7304 O           15.7660     5.7380     5.9890 O             1 RES     
    7305 H           14.9150     6.2610     6.0020 H             1 RES     
    7306 H           15.6100     4.8570     5.5420 H             1 RES     
    7307 O           27.3750    35.4440     8.1570 O             1 RES     
    7308 H           28.2990    35.2510     8.4860 H             1 RES     
    7309 H           27.4230    36.0610     7.3710 H             1 RES     
    7310 O           46.4230    30.5730     7.4750 O             1 RES     
    7311 H           46.8590    31.4270     7.1940 H             1 RES     
    7312 H           47.1120    29.8500     7.5330 H             1 RES     
    7313 O           30.5210    12.8760     8.3600 O             1 RES     
    7314 H           29.9400    13.6520     8.1160 H             1 RES     
    7315 H           31.4810    13.1220     8.2240 H             1 RES     
    7316 O            0.3210    -7.2490     5.1010 O             1 RES     
    7317 H            0.1860    -6.2640     5.1950 H             1 RES     
    7318 H            1.2250    -7.4970     5.4490 H             1 RES     
    7319 O           30.0220    -5.8090    14.2230 O             1 RES     
    7320 H           29.0960    -6.1070    13.9910 H             1 RES     
    7321 H           30.2260    -4.9530    13.7470 H             1 RES     
    7322 O           19.8460     4.7790     5.2690 O             1 RES     
    7323 H           20.5260     4.0470     5.2560 H             1 RES     
    7324 H           19.4750     4.8720     6.1940 H             1 RES     
    7325 O            2.1880    15.9940    12.0210 O             1 RES     
    7326 H            3.1810    15.9130    12.0930 H             1 RES     
    7327 H            1.7580    15.1730    12.3990 H             1 RES     
    7328 O           19.6720    -0.5550     8.3980 O             1 RES     
    7329 H           20.1620    -1.0070     9.1420 H             1 RES     
    7330 H           19.9820     0.3930     8.3220 H             1 RES     
    7331 O           -0.0700    13.4450     1.6610 O             1 RES     
    7332 H           -0.1900    13.9130     0.7860 H             1 RES     
    7333 H            0.9050    13.3800     1.8750 H             1 RES     
    7334 O           -1.2480    37.2930     1.5070 O             1 RES     
    7335 H           -1.0240    37.2610     0.5340 H             1 RES     
    7336 H           -1.7350    36.4580     1.7650 H             1 RES     
    7337 O           -0.2320    -4.4170     6.4210 O             1 RES     
    7338 H           -0.9750    -4.5770     7.0690 H             1 RES     
    7339 H           -0.3690    -3.5370     5.9660 H             1 RES     
    7340 O           46.0370    23.1430    12.4650 O             1 RES     
    7341 H           45.0940    23.2930    12.7620 H             1 RES     
    7342 H           46.1030    23.2890    11.4780 H             1 RES     
    7343 O           23.3790    10.7730    14.2180 O             1 RES     
    7344 H           22.4220    10.4860    14.2110 H             1 RES     
    7345 H           23.9700     9.9660    14.2220 H             1 RES     
    7346 O           43.8020    30.4750     3.5610 O             1 RES     
    7347 H           43.7690    30.2550     4.5350 H             1 RES     
    7348 H           44.6380    30.0980     3.1610 H             1 RES     
    7349 O           -2.9060    28.1830    11.3750 O             1 RES     
    7350 H           -2.9820    27.4040    11.9960 H             1 RES     
    7351 H           -3.7440    28.7280    11.4170 H             1 RES     
    7352 O           31.2860     5.2210     6.5820 O             1 RES     
    7353 H           30.6520     5.9300     6.8900 H             1 RES     
    7354 H           30.7700     4.4690     6.1700 H             1 RES     
    7355 O           29.1810    25.5470     4.4000 O             1 RES     
    7356 H           30.1700    25.4110     4.4460 H             1 RES     
    7357 H           28.9860    26.4920     4.1360 H             1 RES     
    7358 O           15.4930    16.1950     1.3170 O             1 RES     
    7359 H           16.2270    15.5990     0.9950 H             1 RES     
    7360 H           14.7950    15.6470     1.7780 H             1 RES     
    7361 O           37.9250     6.6110    11.7890 O             1 RES     
    7362 H           37.7440     5.6330    11.8840 H             1 RES     
    7363 H           37.7230     7.0730    12.6530 H             1 RES     
    7364 O           -2.8850    15.8090     7.1980 O             1 RES     
    7365 H           -2.4330    15.6210     8.0690 H             1 RES     
    7366 H           -2.4040    15.3300     6.4630 H             1 RES     
    7367 O           36.5010    -7.6620     9.1930 O             1 RES     
    7368 H           36.0140    -6.8340     8.9170 H             1 RES     
    7369 H           36.7080    -7.6170    10.1710 H             1 RES     
    7370 O            1.7520    29.9540     9.2570 O             1 RES     
    7371 H            2.5380    29.6220     9.7760 H             1 RES     
    7372 H            0.9080    29.6810     9.7180 H             1 RES     
    7373 O           35.5560    35.7800     9.0950 O             1 RES     
    7374 H           35.3140    36.5170     9.7250 H             1 RES     
    7375 H           35.5180    34.9040     9.5760 H             1 RES     
    7376 O           20.5630     4.0720    11.4920 O             1 RES     
    7377 H           20.4180     3.0830    11.5030 H             1 RES     
    7378 H           19.6810     4.5380    11.4190 H             1 RES     
    7379 O           18.7150    20.2770     4.9710 O             1 RES     
    7380 H           18.2090    21.1200     5.1520 H             1 RES     
    7381 H           18.3310    19.8220     4.1670 H             1 RES     
    7382 O           30.7510    34.0390    10.7890 O             1 RES     
    7383 H           30.1530    34.8020    11.0320 H             1 RES     
    7384 H           30.6740    33.8540     9.8090 H             1 RES     
    7385 O           40.1780     7.7220    12.4360 O             1 RES     
    7386 H           39.9110     6.8100    12.7480 H             1 RES     
    7387 H           41.0940     7.9350    12.7760 H             1 RES     
    7388 O            9.5000     8.1480     2.9650 O             1 RES     
    7389 H            9.4130     7.4920     2.2160 H             1 RES     
    7390 H           10.4070     8.0660     3.3780 H             1 RES     
    7391 O           30.8740    -0.4150     9.7140 O             1 RES     
    7392 H           30.4430    -0.5100    10.6100 H             1 RES     
    7393 H           30.9510     0.5550     9.4810 H             1 RES     
    7394 O           32.0130    20.2430     1.7100 O             1 RES     
    7395 H           31.6460    19.4550     1.2170 H             1 RES     
    7396 H           32.9940    20.3210     1.5320 H             1 RES     
    7397 O           35.1120    33.3930    13.9070 O             1 RES     
    7398 H           36.0670    33.5960    14.1240 H             1 RES     
    7399 H           34.9540    32.4090    13.9870 H             1 RES     
    7400 O           28.3680    39.1130    12.3690 O             1 RES     
    7401 H           29.3360    38.8650    12.3350 H             1 RES     
    7402 H           28.2680    40.0100    12.7990 H             1 RES     
    7403 O           10.9460     0.8220    10.1920 O             1 RES     
    7404 H           10.0190     0.9920    10.5250 H             1 RES     
    7405 H           10.9580    -0.0200     9.6530 H             1 RES     
    7406 O           30.0640    33.4770     6.4520 O             1 RES     
    7407 H           29.5760    33.7650     7.2760 H             1 RES     
    7408 H           31.0400    33.3980     6.6520 H             1 RES     
    7409 O           -0.6890     6.6130     3.9740 O             1 RES     
    7410 H           -0.7960     5.6570     3.7030 H             1 RES     
    7411 H           -1.0110     6.7320     4.9130 H             1 RES     
    7412 O           -5.4550    27.0520     8.8480 O             1 RES     
    7413 H           -4.6100    26.8130     9.3270 H             1 RES     
    7414 H           -6.1140    27.4270     9.5010 H             1 RES     
    7415 O           45.3670    -5.1160     6.8930 O             1 RES     
    7416 H           45.4510    -5.2970     5.9130 H             1 RES     
    7417 H           45.1350    -4.1540     7.0360 H             1 RES     
    7418 O           26.4050     9.9180    10.7920 O             1 RES     
    7419 H           27.0830     9.2350    10.5220 H             1 RES     
    7420 H           26.1900     9.8100    11.7630 H             1 RES     
    7421 O            3.8170     5.0460     4.3220 O             1 RES     
    7422 H            4.3280     5.8510     4.0220 H             1 RES     
    7423 H            4.3910     4.2320     4.2270 H             1 RES     
    7424 O            3.0490     4.4070    10.6370 O             1 RES     
    7425 H            3.2890     5.1820    11.2210 H             1 RES     
    7426 H            3.6410     3.6300    10.8530 H             1 RES     
    7427 O           30.0620    -7.2770     9.5650 O             1 RES     
    7428 H           29.3850    -7.6800    10.1800 H             1 RES     
    7429 H           30.8500    -6.9640    10.0940 H             1 RES     
    7430 O           27.5400    25.7400     7.3930 O             1 RES     
    7431 H           26.5590    25.6410     7.2290 H             1 RES     
    7432 H           27.9040    26.4690     6.8120 H             1 RES     
    7433 O            0.4510    13.7960    13.7300 O             1 RES     
    7434 H            1.0800    13.1950    14.2210 H             1 RES     
    7435 H            0.3700    14.6650    14.2180 H             1 RES     
    7436 O            2.3640    35.0530    11.0080 O             1 RES     
    7437 H            1.3660    35.0430    10.9750 H             1 RES     
    7438 H            2.7260    35.2860    10.1050 H             1 RES     
    7439 O           -1.7640    16.9800    14.0300 O             1 RES     
    7440 H           -2.0190    17.9450    14.0720 H             1 RES     
    7441 H           -2.5650    16.4130    14.2240 H             1 RES     
    7442 O           37.0170    39.4960     0.6320 O             1 RES     
    7443 H           38.0120    39.4840     0.5350 H             1 RES     
    7444 H           36.7340    40.3570     1.0550 H             1 RES     
    7445 O           16.3580    -5.1390    13.4430 O             1 RES     
    7446 H           15.4880    -4.9880    12.9730 H             1 RES     
    7447 H           16.7790    -5.9810    13.1040 H             1 RES     
    7448 O           47.0410    34.3260     7.6770 O             1 RES     
    7449 H           47.3920    35.2110     7.3700 H             1 RES     
    7450 H           46.0620    34.4020     7.8640 H             1 RES     
    7451 O            7.2870     1.0930     8.3310 O             1 RES     
    7452 H            7.2480     1.4380     9.2680 H             1 RES     
    7453 H            7.5790     1.8260     7.7170 H             1 RES     
    7454 O           46.8020    -0.4560     5.0510 O             1 RES     
    7455 H           47.7820    -0.2660     5.0990 H             1 RES     
    7456 H           46.2940     0.4050     5.0630 H             1 RES     
    7457 O           20.9960    34.8090     7.6080 O             1 RES     
    7458 H           20.8110    35.7900     7.5510 H             1 RES     
    7459 H           21.9800    34.6500     7.5230 H             1 RES     
    7460 O           -5.6960    -3.4110     5.6690 O             1 RES     
    7461 H           -5.6010    -4.3780     5.9040 H             1 RES     
    7462 H           -4.8440    -3.0810     5.2630 H             1 RES     
    7463 O           42.3710    -3.0080     1.1060 O             1 RES     
    7464 H           41.7040    -2.5320     0.5340 H             1 RES     
    7465 H           43.2960    -2.7680     0.8110 H             1 RES     
    7466 O            1.9420    23.3910     3.1690 O             1 RES     
    7467 H            2.8490    23.1180     2.8500 H             1 RES     
    7468 H            1.9410    24.3690     3.3760 H             1 RES     
    7469 O           40.0970     1.3280     3.3740 O             1 RES     
    7470 H           40.6550     2.1330     3.1790 H             1 RES     
    7471 H           40.6070     0.5020     3.1330 H             1 RES     
    7472 O           45.6320    39.4550    12.6470 O             1 RES     
    7473 H           46.3300    39.9550    13.1590 H             1 RES     
    7474 H           44.8790    40.0730    12.4200 H             1 RES     
    7475 O            2.3480    32.9740     9.1060 O             1 RES     
    7476 H            2.5260    32.0120     9.3120 H             1 RES     
    7477 H            1.4710    33.2440     9.5040 H             1 RES     
    7478 O           37.8700    17.6790    10.5700 O             1 RES     
    7479 H           38.2180    17.6270     9.6340 H             1 RES     
    7480 H           37.4330    16.8130    10.8120 H             1 RES     
    7481 O           26.0110    19.4790     5.1630 O             1 RES     
    7482 H           26.5110    18.6260     5.0220 H             1 RES     
    7483 H           26.2340    20.1220     4.4290 H             1 RES     
    7484 O           39.6420    20.1530    12.6400 O             1 RES     
    7485 H           38.7350    20.5710    12.6030 H             1 RES     
    7486 H           39.9310    20.0680    13.5940 H             1 RES     
    7487 O           -5.4450     9.2330    11.1990 O             1 RES     
    7488 H           -5.8770    10.1330    11.1620 H             1 RES     
    7489 H           -6.1140     8.5540    11.5030 H             1 RES     
    7490 O           17.7490     2.7490     5.7910 O             1 RES     
    7491 H           17.4190     3.4070     6.4680 H             1 RES     
    7492 H           18.7410     2.8380     5.6960 H             1 RES     
    7493 O           20.1280    13.7240    11.3040 O             1 RES     
    7494 H           19.4680    13.0750    11.6810 H             1 RES     
    7495 H           20.1180    14.5640    11.8470 H             1 RES     
    7496 O           40.2360     5.1000     6.8670 O             1 RES     
    7497 H           40.7970     4.4710     7.4050 H             1 RES     
    7498 H           39.6050     5.5850     7.4730 H             1 RES     
    7499 O           42.8870    -0.9790    10.5350 O             1 RES     
    7500 H           43.6880    -0.4550    10.8230 H             1 RES     
    7501 H           42.8500    -1.8400    11.0420 H             1 RES     
    7502 O           13.0090     0.6800     5.2510 O             1 RES     
    7503 H           12.7510    -0.1910     4.8350 H             1 RES     
    7504 H           13.9910     0.6820     5.4420 H             1 RES     
    7505 O           35.3880     0.6740     6.9300 O             1 RES     
    7506 H           35.2160     0.0090     7.6570 H             1 RES     
    7507 H           36.3340     0.9930     6.9880 H             1 RES     
    7508 O           -1.8170    -1.8550     4.7110 O             1 RES     
    7509 H           -2.2880    -1.2020     5.3040 H             1 RES     
    7510 H           -2.2000    -1.8050     3.7890 H             1 RES     
    7511 O           40.6570    -6.0060     7.5800 O             1 RES     
    7512 H           41.2080    -5.1790     7.6810 H             1 RES     
    7513 H           40.1180    -5.9480     6.7390 H             1 RES     
    7514 O            9.5750    11.1300     6.8160 O             1 RES     
    7515 H            9.2810    10.1780     6.7350 H             1 RES     
    7516 H            8.8520    11.7320     6.4760 H             1 RES     
    7517 O           19.5840    14.9640    13.9430 O             1 RES     
    7518 H           18.8140    15.5380    14.2230 H             1 RES     
    7519 H           20.4350    15.4820    14.0300 H             1 RES     
    7520 O            5.5450    34.7490    14.2210 O             1 RES     
    7521 H            4.6930    34.2350    14.1310 H             1 RES     
    7522 H            5.5900    35.4490    13.5080 H             1 RES     
    7523 O            7.2570     3.0980     0.5340 O             1 RES     
    7524 H            6.3310     3.4720     0.5340 H             1 RES     
    7525 H            7.9200     3.8470     0.5340 H             1 RES     
    7526 O           34.4430    31.9200    10.5880 O             1 RES     
    7527 H           34.1410    31.1700    10.0010 H             1 RES     
    7528 H           35.0300    31.5610    11.3140 H             1 RES     
    7529 O            3.2710    -3.8090     7.6190 O             1 RES     
    7530 H            3.4170    -2.9060     7.2150 H             1 RES     
    7531 H            4.0110    -4.4220     7.3410 H             1 RES     
    7532 O           28.2590    32.7150     5.2880 O             1 RES     
    7533 H           28.9190    32.5490     4.5560 H             1 RES     
    7534 H           27.9940    33.6800     5.2870 H             1 RES     
    7535 O           48.6570    33.2830     8.7480 O             1 RES     
    7536 H           49.3340    33.5160     9.4450 H             1 RES     
    7537 H           49.0070    32.5400     8.1770 H             1 RES     
    7538 O           11.2350     4.6830     5.7620 O             1 RES     
    7539 H           10.3720     4.2270     5.9750 H             1 RES     
    7540 H           11.4960     5.2780     6.5220 H             1 RES     
    7541 O           17.6910     3.8730     3.7640 O             1 RES     
    7542 H           16.7520     3.6910     4.0560 H             1 RES     
    7543 H           18.0260     3.1050     3.2190 H             1 RES     
    7544 O           -2.7950    13.3420     3.6750 O             1 RES     
    7545 H           -2.4050    12.7550     2.9660 H             1 RES     
    7546 H           -3.0960    12.7800     4.4460 H             1 RES     
    7547 O           20.9810     0.8180    10.2350 O             1 RES     
    7548 H           20.8690     1.7250     9.8320 H             1 RES     
    7549 H           21.7740     0.3660     9.8270 H             1 RES     
    7550 O           28.7550    -3.7600     4.3590 O             1 RES     
    7551 H           28.8830    -2.8580     4.7690 H             1 RES     
    7552 H           29.5690    -4.3180     4.5180 H             1 RES     
    7553 O           16.4090    -0.5990    10.7610 O             1 RES     
    7554 H           15.7800     0.1770    10.7390 H             1 RES     
    7555 H           15.8860    -1.4520    10.7490 H             1 RES     
    7556 O           35.5850    26.1600     3.2010 O             1 RES     
    7557 H           35.0820    26.8960     2.7500 H             1 RES     
    7558 H           35.0000    25.7250     3.8850 H             1 RES     
    7559 O           12.0770    15.0140    11.7310 O             1 RES     
    7560 H           11.7010    14.1280    12.0030 H             1 RES     
    7561 H           12.2810    15.0040    10.7520 H             1 RES     
    7562 O           19.3230    35.6080     0.5340 O             1 RES     
    7563 H           18.9870    34.6790     0.6840 H             1 RES     
    7564 H           19.6420    35.9920     1.4010 H             1 RES     
    7565 O           24.0120    39.3780     5.5110 O             1 RES     
    7566 H           24.2320    40.2520     5.9410 H             1 RES     
    7567 H           23.7320    38.7220     6.2130 H             1 RES     
    7568 O           33.2310    -1.7700     6.7340 O             1 RES     
    7569 H           34.2140    -1.6460     6.6000 H             1 RES     
    7570 H           32.7350    -1.3370     5.9810 H             1 RES     
    7571 O           41.5110     7.5360    10.3030 O             1 RES     
    7572 H           42.4890     7.6670    10.1410 H             1 RES     
    7573 H           41.0920     8.4100    10.5470 H             1 RES     
    7574 O           12.4130    29.2260    14.1770 O             1 RES     
    7575 H           13.0900    29.9600    14.2220 H             1 RES     
    7576 H           11.4990    29.6190    14.0810 H             1 RES     
    7577 O           48.2860    -3.2290     3.6590 O             1 RES     
    7578 H           48.3780    -3.5180     4.6110 H             1 RES     
    7579 H           48.1230    -2.2430     3.6240 H             1 RES     
    7580 O           -5.5970    19.8050    13.2700 O             1 RES     
    7581 H           -5.5930    20.8050    13.2640 H             1 RES     
    7582 H           -4.6570    19.4680    13.3240 H             1 RES     
    7583 O           46.5310    31.1450    10.6530 O             1 RES     
    7584 H           46.2750    32.0940    10.8340 H             1 RES     
    7585 H           46.5990    31.0010     9.6650 H             1 RES     
    7586 O           16.2500    36.6550     2.7570 O             1 RES     
    7587 H           16.3320    35.6590     2.7230 H             1 RES     
    7588 H           16.7830    37.0590     2.0130 H             1 RES     
    7589 O           12.9280    36.8040    10.5450 O             1 RES     
    7590 H           12.5370    37.3960    11.2490 H             1 RES     
    7591 H           13.8830    36.6080    10.7670 H             1 RES     
    7592 O           20.4210    28.0450     6.7230 O             1 RES     
    7593 H           21.0420    28.8280     6.7340 H             1 RES     
    7594 H           19.4760    28.3680     6.6650 H             1 RES     
    7595 O           13.7480    34.3290     0.9110 O             1 RES     
    7596 H           14.1450    33.4160     0.8240 H             1 RES     
    7597 H           12.7570    34.2520     1.0220 H             1 RES     
    7598 O           31.8850    27.7780     2.0540 O             1 RES     
    7599 H           32.1800    28.5920     2.5530 H             1 RES     
    7600 H           32.5660    27.5490     1.3580 H             1 RES     
    7601 O           -0.4490     4.9920    10.8710 O             1 RES     
    7602 H           -0.9980     4.4350    11.4930 H             1 RES     
    7603 H           -0.5930     4.6830     9.9310 H             1 RES     
    7604 O           27.3500    15.8100     9.5700 O             1 RES     
    7605 H           27.0820    16.4220     8.8260 H             1 RES     
    7606 H           28.1910    16.1490     9.9940 H             1 RES     
    7607 O           17.7590    29.4470     5.0680 O             1 RES     
    7608 H           17.3640    29.8870     5.8740 H             1 RES     
    7609 H           17.7880    28.4570     5.2070 H             1 RES     
    7610 O           32.0610    27.3510    12.9890 O             1 RES     
    7611 H           32.7500    26.7540    13.4000 H             1 RES     
    7612 H           31.5150    26.8290    12.3340 H             1 RES     
    7613 O           24.2050    14.9920    11.2790 O             1 RES     
    7614 H           23.9370    14.0500    11.4760 H             1 RES     
    7615 H           23.9580    15.5780    12.0510 H             1 RES     
    7616 O           20.0330    -5.7600    11.7210 O             1 RES     
    7617 H           19.2980    -5.1600    11.4080 H             1 RES     
    7618 H           20.8110    -5.6900    11.0960 H             1 RES     
    7619 O            4.1000    36.9100    11.2100 O             1 RES     
    7620 H            4.1910    37.0070    12.2000 H             1 RES     
    7621 H            4.9920    37.0490    10.7770 H             1 RES     
    7622 O            1.3550    -3.8870    10.2900 O             1 RES     
    7623 H            1.8540    -4.1840     9.4770 H             1 RES     
    7624 H            0.3890    -3.7620    10.0620 H             1 RES     
    7625 O            2.9320    -3.6460     5.1790 O             1 RES     
    7626 H            3.3420    -2.8130     4.8100 H             1 RES     
    7627 H            1.9370    -3.5980     5.0870 H             1 RES     
    7628 O           -1.6620    12.7690     7.1710 O             1 RES     
    7629 H           -0.7920    12.8880     6.6950 H             1 RES     
    7630 H           -2.4040    13.1350     6.6080 H             1 RES     
    7631 O           -4.9230    35.4940     5.8280 O             1 RES     
    7632 H           -5.4310    36.0730     5.1900 H             1 RES     
    7633 H           -4.4290    34.7890     5.3180 H             1 RES     
    7634 O           10.9440    25.2380     8.7060 O             1 RES     
    7635 H            9.9650    25.3360     8.5280 H             1 RES     
    7636 H           11.2260    24.2980     8.5090 H             1 RES     
    7637 O           46.0150    13.3140     6.9370 O             1 RES     
    7638 H           45.5370    12.4480     6.7950 H             1 RES     
    7639 H           46.0160    13.5400     7.9110 H             1 RES     
    7640 O           45.5340    26.3560     5.3770 O             1 RES     
    7641 H           45.3200    26.1890     6.3390 H             1 RES     
    7642 H           46.1590    25.6480     5.0460 H             1 RES     
    7643 O           38.3370    -4.8850    11.6410 O             1 RES     
    7644 H           37.5170    -4.7060    11.0970 H             1 RES     
    7645 H           38.1820    -5.6790    12.2280 H             1 RES     
    7646 O            9.6300    14.7330    10.5130 O             1 RES     
    7647 H            9.4640    15.7060    10.6710 H             1 RES     
    7648 H            8.8440    14.3330    10.0410 H             1 RES     
    7649 O           51.6290     3.4600    13.5470 O             1 RES     
    7650 H           51.2770     2.5250    13.5160 H             1 RES     
    7651 H           52.0490     3.6880    12.6680 H             1 RES     
    7652 O           -5.3420    25.8410     4.1080 O             1 RES     
    7653 H           -6.1130    26.4750     4.1510 H             1 RES     
    7654 H           -4.9230    25.8850     3.2010 H             1 RES     
    7655 O           -4.7180    25.0230     8.0520 O             1 RES     
    7656 H           -4.2230    24.5590     8.7860 H             1 RES     
    7657 H           -5.5100    24.4750     7.7850 H             1 RES     
    7658 O           28.3860     5.2220    14.2230 O             1 RES     
    7659 H           27.7360     5.9700    14.0880 H             1 RES     
    7660 H           29.3190     5.5770    14.1680 H             1 RES     
    7661 O            7.6910    31.3340    12.2570 O             1 RES     
    7662 H            6.8000    30.9280    12.0540 H             1 RES     
    7663 H            8.1840    30.7510    12.9030 H             1 RES     
    7664 O           31.1000    20.8890     9.0320 O             1 RES     
    7665 H           30.1550    20.5730     9.1200 H             1 RES     
    7666 H           31.4440    21.1660     9.9290 H             1 RES     
    7667 O            7.5210    40.2390    13.2710 O             1 RES     
    7668 H            7.8590    39.8740    12.4050 H             1 RES     
    7669 H            8.2850    40.3520    13.9070 H             1 RES     
    7670 O            7.5410    24.6030     5.5380 O             1 RES     
    7671 H            7.0550    24.6670     6.4090 H             1 RES     
    7672 H            8.5260    24.6680     5.7000 H             1 RES     
    7673 O           16.1030    32.2610    13.5190 O             1 RES     
    7674 H           16.8080    32.1920    14.2240 H             1 RES     
    7675 H           15.8020    31.3440    13.2570 H             1 RES     
    7676 O           -3.1700    28.9350     9.2800 O             1 RES     
    7677 H           -2.8500    28.2310     8.6460 H             1 RES     
    7678 H           -4.1690    28.9680     9.2650 H             1 RES     
    7679 O           51.4040    29.7690     4.9360 O             1 RES     
    7680 H           51.6430    30.1250     5.8390 H             1 RES     
    7681 H           52.0170    29.0150     4.7010 H             1 RES     
    7682 O           40.3490    39.1750     0.5420 O             1 RES     
    7683 H           39.8770    38.3900     0.9410 H             1 RES     
    7684 H           40.1650    39.9900     1.0920 H             1 RES     
    7685 O           36.2160     4.2620    13.0140 O             1 RES     
    7686 H           36.0720     5.0680    13.5860 H             1 RES     
    7687 H           35.3460     3.7890    12.8780 H             1 RES     
    7688 O           51.6070    20.3960    12.1670 O             1 RES     
    7689 H           50.6370    20.4940    12.3880 H             1 RES     
    7690 H           52.0330    21.3000    12.1220 H             1 RES     
    7691 O           10.6330     7.7840    12.7410 O             1 RES     
    7692 H           10.3980     6.8470    12.4850 H             1 RES     
    7693 H           11.5280     7.7930    13.1870 H             1 RES     
    7694 O           -0.3350    34.4010    13.1040 O             1 RES     
    7695 H            0.5680    34.0400    13.3340 H             1 RES     
    7696 H           -0.3470    35.3900    13.2510 H             1 RES     
    7697 O           19.0730    -4.8810     0.8120 O             1 RES     
    7698 H           20.0220    -5.0500     0.5470 H             1 RES     
    7699 H           18.9000    -5.2890     1.7090 H             1 RES     
    7700 O           41.2990    22.9210     7.0690 O             1 RES     
    7701 H           41.2740    21.9500     6.8310 H             1 RES     
    7702 H           42.1660    23.3170     6.7660 H             1 RES     
    7703 O           31.2990    38.2000     5.8070 O             1 RES     
    7704 H           31.9120    38.8050     5.2980 H             1 RES     
    7705 H           31.8380    37.5150     6.2970 H             1 RES     
    7706 O           41.6300    24.0870    12.7020 O             1 RES     
    7707 H           41.3990    23.3410    12.0790 H             1 RES     
    7708 H           41.3900    24.9610    12.2790 H             1 RES     
    7709 O           -2.9590    16.8630    11.7970 O             1 RES     
    7710 H           -2.1150    17.2290    11.4070 H             1 RES     
    7711 H           -3.4370    16.3190    11.1070 H             1 RES     
    7712 O           -2.1630    30.4860    10.8310 O             1 RES     
    7713 H           -1.3660    29.9470    10.5600 H             1 RES     
    7714 H           -1.8730    31.4100    11.0780 H             1 RES     
    7715 O           35.7440    40.3200    12.1890 O             1 RES     
    7716 H           36.1600    39.4620    12.4900 H             1 RES     
    7717 H           35.7140    40.3430    11.1890 H             1 RES     
    7718 O           28.1810     6.3940    10.3480 O             1 RES     
    7719 H           27.1850     6.3630    10.4300 H             1 RES     
    7720 H           28.5240     5.4910    10.0910 H             1 RES     
    7721 O           23.4820    40.3100     3.0670 O             1 RES     
    7722 H           24.3510    39.9090     3.3550 H             1 RES     
    7723 H           22.7940    40.1610     3.7770 H             1 RES     
    7724 O           43.8670     1.1850     8.7880 O             1 RES     
    7725 H           43.7530     0.1940     8.7220 H             1 RES     
    7726 H           43.8930     1.4550     9.7510 H             1 RES     
    7727 O           21.8590    28.1440    11.0240 O             1 RES     
    7728 H           21.6850    29.1250    10.9530 H             1 RES     
    7729 H           22.6920    27.9900    11.5560 H             1 RES     
    7730 O           28.9760    12.7960     3.7890 O             1 RES     
    7731 H           29.6540    13.4770     4.0620 H             1 RES     
    7732 H           28.4630    12.4940     4.5930 H             1 RES     
    7733 O           -1.0770     7.1360    13.2400 O             1 RES     
    7734 H           -0.3490     6.4720    13.0760 H             1 RES     
    7735 H           -0.6860     8.0550    13.2990 H             1 RES     
    7736 O           21.5200    10.3160     8.3140 O             1 RES     
    7737 H           20.5870    10.1480     7.9960 H             1 RES     
    7738 H           21.8990     9.4730     8.6960 H             1 RES     
    7739 O           16.3960     7.8220     6.7670 O             1 RES     
    7740 H           16.8690     8.2320     7.5460 H             1 RES     
    7741 H           15.5180     8.2820     6.6300 H             1 RES     
    7742 O           28.3950    -6.4840     4.6940 O             1 RES     
    7743 H           29.2450    -6.4530     5.2190 H             1 RES     
    7744 H           28.1940    -7.4300     4.4390 H             1 RES     
    7745 O            9.2500    27.4150    10.9460 O             1 RES     
    7746 H            8.6500    28.1140    10.5570 H             1 RES     
    7747 H            9.7490    26.9570    10.2100 H             1 RES     
    7748 O           39.4810    18.0610     3.9130 O             1 RES     
    7749 H           38.6410    18.5970     3.9830 H             1 RES     
    7750 H           40.2640    18.6330     4.1600 H             1 RES     
    7751 O           21.0290    -7.6910    12.1600 O             1 RES     
    7752 H           21.8210    -7.4190    12.7060 H             1 RES     
    7753 H           20.2130    -7.7020    12.7380 H             1 RES     
    7754 O           41.7930    30.0500     2.7600 O             1 RES     
    7755 H           41.5520    31.0040     2.5870 H             1 RES     
    7756 H           41.6320    29.5100     1.9330 H             1 RES     
    7757 O           32.8410    30.9310     7.7910 O             1 RES     
    7758 H           32.6650    30.3440     8.5800 H             1 RES     
    7759 H           32.1480    31.6500     7.7480 H             1 RES     
    7760 O           34.9320     3.6340     2.8390 O             1 RES     
    7761 H           35.2550     2.7230     2.5850 H             1 RES     
    7762 H           34.5040     3.5980     3.7420 H             1 RES     
    7763 O           32.1740    -3.5030    12.1220 O             1 RES     
    7764 H           31.5390    -4.2750    12.1180 H             1 RES     
    7765 H           33.1090    -3.8380    12.0050 H             1 RES     
    7766 O           17.6550     0.0100    14.2230 O             1 RES     
    7767 H           18.2490     0.6120    13.6900 H             1 RES     
    7768 H           17.9410    -0.9400    14.0960 H             1 RES     
    7769 O           10.5960    24.2910     1.5820 O             1 RES     
    7770 H           10.4480    25.2580     1.3770 H             1 RES     
    7771 H           11.2380    24.2050     2.3440 H             1 RES     
    7772 O           -2.0770    28.8270     3.6180 O             1 RES     
    7773 H           -1.8030    29.1100     2.7000 H             1 RES     
    7774 H           -3.0700    28.7170     3.6510 H             1 RES     
    7775 O           44.7180     5.1530     6.5920 O             1 RES     
    7776 H           45.2280     4.3730     6.2310 H             1 RES     
    7777 H           45.0130     5.3400     7.5290 H             1 RES     
    7778 O           38.5970    -3.8010     9.2710 O             1 RES     
    7779 H           39.1420    -4.6000     9.0200 H             1 RES     
    7780 H           39.1990    -3.0130     9.3990 H             1 RES     
    7781 O           51.6230    22.4810     6.9410 O             1 RES     
    7782 H           51.0880    23.2860     7.1980 H             1 RES     
    7783 H           51.0120    21.7720     6.5910 H             1 RES     
    7784 O           43.5860     1.2530     5.6280 O             1 RES     
    7785 H           42.6000     1.1290     5.7310 H             1 RES     
    7786 H           43.8820     2.0410     6.1680 H             1 RES     
    7787 O            5.3080    13.3400     9.3800 O             1 RES     
    7788 H            5.9190    13.8320     8.7610 H             1 RES     
    7789 H            4.4480    13.1390     8.9110 H             1 RES     
    7790 O            0.6490    -4.9560    14.2230 O             1 RES     
    7791 H            1.3320    -4.2260    14.2230 H             1 RES     
    7792 H            1.1090    -5.8440    14.2240 H             1 RES     
    7793 O           43.1200    14.3050     6.0260 O             1 RES     
    7794 H           42.3500    13.8590     6.4810 H             1 RES     
    7795 H           43.9790    13.9490     6.3960 H             1 RES     
    7796 O           28.2130    37.2160     4.9170 O             1 RES     
    7797 H           29.1100    37.4970     4.5780 H             1 RES     
    7798 H           27.5130    37.8350     4.5610 H             1 RES     
    7799 O           27.5080    10.2310    14.2230 O             1 RES     
    7800 H           26.5090    10.2350    14.2020 H             1 RES     
    7801 H           27.8520    11.1110    13.8940 H             1 RES     
    7802 O           14.6380    30.6860     6.5830 O             1 RES     
    7803 H           13.7100    31.0570     6.5630 H             1 RES     
    7804 H           15.2960    31.4280     6.4520 H             1 RES     
    7805 O           47.7950     7.4820     8.1510 O             1 RES     
    7806 H           48.1970     6.9870     7.3820 H             1 RES     
    7807 H           47.9170     8.4660     8.0160 H             1 RES     
    7808 O           36.2760    -7.4320     3.3630 O             1 RES     
    7809 H           37.1830    -7.6950     3.6900 H             1 RES     
    7810 H           36.1750    -7.7030     2.4060 H             1 RES     
    7811 O           29.2860    25.3480    11.6730 O             1 RES     
    7812 H           30.2460    25.0800    11.7600 H             1 RES     
    7813 H           29.0830    26.0780    12.3260 H             1 RES     
    7814 O           36.6350    -1.8340    12.4850 O             1 RES     
    7815 H           37.5770    -1.5050    12.5380 H             1 RES     
    7816 H           36.6040    -2.8010    12.7410 H             1 RES     
    7817 O           50.5200    17.8170    10.7860 O             1 RES     
    7818 H           49.9010    17.0330    10.7760 H             1 RES     
    7819 H           51.4570    17.5040    10.6280 H             1 RES     
    7820 O           32.4480    -6.4340     7.8360 O             1 RES     
    7821 H           32.1510    -7.1830     7.2430 H             1 RES     
    7822 H           33.4170    -6.5490     8.0570 H             1 RES     
    7823 O           23.8450    -5.8210    10.5900 O             1 RES     
    7824 H           24.5770    -5.1460    10.6700 H             1 RES     
    7825 H           23.7340    -6.2980    11.4620 H             1 RES     
    7826 O           48.7750    12.3650     2.6010 O             1 RES     
    7827 H           48.5320    11.4510     2.9230 H             1 RES     
    7828 H           48.2540    13.0490     3.1130 H             1 RES     
    7829 O           37.7430    -1.1540     6.5310 O             1 RES     
    7830 H           36.7930    -1.2750     6.8190 H             1 RES     
    7831 H           38.1070    -0.3110     6.9250 H             1 RES     
    7832 O           32.4830    32.5880    12.1780 O             1 RES     
    7833 H           31.5540    32.3690    12.4750 H             1 RES     
    7834 H           33.0710    31.7890    12.3030 H             1 RES     
    7835 O           35.7070     9.0720     3.6560 O             1 RES     
    7836 H           34.9900     8.4370     3.9430 H             1 RES     
    7837 H           35.3320     9.9970     3.6000 H             1 RES     
    7838 O           48.5190     6.0150     2.6340 O             1 RES     
    7839 H           48.0110     5.2830     3.0860 H             1 RES     
    7840 H           49.2860     5.6250     2.1250 H             1 RES     
    7841 O           11.3000    -5.5990    12.8940 O             1 RES     
    7842 H           10.4170    -5.1320    12.9250 H             1 RES     
    7843 H           11.1550    -6.5890    12.8910 H             1 RES     
    7844 O           50.5460    -0.9020     1.8220 O             1 RES     
    7845 H           50.5160    -1.8890     1.9780 H             1 RES     
    7846 H           50.8750    -0.7200     0.8960 H             1 RES     
    7847 O           49.3060    24.9850     9.9190 O             1 RES     
    7848 H           48.7490    24.1670     9.7780 H             1 RES     
    7849 H           50.1010    24.7560    10.4810 H             1 RES     
    7850 O           17.0760     4.7160    12.7460 O             1 RES     
    7851 H           17.4540     3.7900    12.7370 H             1 RES     
    7852 H           17.8230     5.3810    12.7570 H             1 RES     
    7853 O           38.8460     9.6600     7.1740 O             1 RES     
    7854 H           38.2280    10.0450     6.4900 H             1 RES     
    7855 H           39.1850    10.3900     7.7670 H             1 RES     
    7856 O           20.8200    12.6200     4.0980 O             1 RES     
    7857 H           20.2360    11.9400     3.6560 H             1 RES     
    7858 H           20.4080    12.9020     4.9650 H             1 RES     
    7859 O           33.0270    31.4390     2.5160 O             1 RES     
    7860 H           32.6910    30.9690     3.3320 H             1 RES     
    7861 H           32.3580    32.1240     2.2270 H             1 RES     
    7862 O           18.3500     0.3230     4.9610 O             1 RES     
    7863 H           18.6240     0.5980     5.8820 H             1 RES     
    7864 H           18.2950     1.1310     4.3740 H             1 RES     
    7865 O           -3.8280    33.9970     8.2980 O             1 RES     
    7866 H           -4.3870    34.1440     7.4820 H             1 RES     
    7867 H           -4.3800    33.5560     9.0060 H             1 RES     
    7868 O           34.1030    37.7460     8.0620 O             1 RES     
    7869 H           33.9120    36.7660     8.0150 H             1 RES     
    7870 H           33.2610    38.2580     7.8930 H             1 RES     
    7871 O           -3.6590     8.8920     9.6020 O             1 RES     
    7872 H           -3.3830     8.3020    10.3600 H             1 RES     
    7873 H           -3.7520     9.8330     9.9280 H             1 RES     
    7874 O           20.9480     5.8570     7.5600 O             1 RES     
    7875 H           20.9620     5.8960     8.5580 H             1 RES     
    7876 H           20.5770     6.7130     7.1980 H             1 RES     
    7877 O           43.4280    -0.7400     6.5460 O             1 RES     
    7878 H           43.9860    -1.1050     5.8020 H             1 RES     
    7879 H           42.6450    -1.3420     6.7040 H             1 RES     
    7880 O            9.8640    18.6550     4.7950 O             1 RES     
    7881 H           10.0160    17.8920     4.1680 H             1 RES     
    7882 H            9.8060    18.3110     5.7320 H             1 RES     
    7883 O           34.6770    20.2910     9.2820 O             1 RES     
    7884 H           35.6360    20.5730     9.2750 H             1 RES     
    7885 H           34.6230    19.2920     9.2930 H             1 RES     
    7886 O           31.2890     7.4950    14.2190 O             1 RES     
    7887 H           31.5730     6.5750    13.9520 H             1 RES     
    7888 H           31.1910     8.0640    13.4030 H             1 RES     
    7889 O           22.1040    37.3370     3.8470 O             1 RES     
    7890 H           22.3340    37.7610     2.9710 H             1 RES     
    7891 H           22.7060    37.6950     4.5600 H             1 RES     
    7892 O           -1.7180    38.7480     6.5150 O             1 RES     
    7893 H           -1.7580    39.4440     5.7980 H             1 RES     
    7894 H           -2.5770    38.7460     7.0270 H             1 RES     
    7895 O            4.6970    25.7150    10.1560 O             1 RES     
    7896 H            5.5540    25.3590    10.5260 H             1 RES     
    7897 H            4.7950    25.8630     9.1720 H             1 RES     
    7898 O           10.0610     3.8840     1.0430 O             1 RES     
    7899 H           10.5350     4.0580     1.9060 H             1 RES     
    7900 H           10.1310     2.9140     0.8130 H             1 RES     
    7901 O           42.9690    -5.3440     4.0050 O             1 RES     
    7902 H           43.6970    -5.1050     3.3630 H             1 RES     
    7903 H           42.4380    -6.1090     3.6380 H             1 RES     
    7904 O           42.1650     5.1030     9.7690 O             1 RES     
    7905 H           41.2170     5.4170     9.7870 H             1 RES     
    7906 H           42.5930     5.2830    10.6550 H             1 RES     
    7907 O           48.2590    33.1960     5.4030 O             1 RES     
    7908 H           49.1630    33.4890     5.7130 H             1 RES     
    7909 H           48.1410    32.2210     5.5920 H             1 RES     
    7910 O           20.7480    27.0950     4.7650 O             1 RES     
    7911 H           21.6180    26.6060     4.7060 H             1 RES     
    7912 H           20.6000    27.6140     3.9230 H             1 RES     
    7913 O            5.0130    32.6990    10.1490 O             1 RES     
    7914 H            4.3580    33.4080     9.8870 H             1 RES     
    7915 H            4.6000    31.7980    10.0150 H             1 RES     
    7916 O           43.1300    11.5460     5.8050 O             1 RES     
    7917 H           42.2800    11.6660     6.3150 H             1 RES     
    7918 H           43.3660    10.5740     5.7720 H             1 RES     
    7919 O            2.1540    30.5020     4.3440 O             1 RES     
    7920 H            2.1120    29.8320     3.6040 H             1 RES     
    7921 H            1.2490    30.5960     4.7610 H             1 RES     
    7922 O           50.9650    13.0480     1.4690 O             1 RES     
    7923 H           51.8650    13.2900     1.1080 H             1 RES     
    7924 H           50.4290    13.8800     1.6140 H             1 RES     
    7925 O           29.0610    35.2940     4.2400 O             1 RES     
    7926 H           28.6440    35.2870     3.3320 H             1 RES     
    7927 H           29.9440    34.8250     4.2060 H             1 RES     
    7928 O           16.6980    18.8530    12.6210 O             1 RES     
    7929 H           16.9540    19.0200    11.6690 H             1 RES     
    7930 H           17.5210    18.6960    13.1660 H             1 RES     
    7931 O           38.0010    32.4630     3.4830 O             1 RES     
    7932 H           38.7040    31.8530     3.1190 H             1 RES     
    7933 H           37.4530    31.9740     4.1630 H             1 RES     
    7934 O            2.0180    10.2070    10.8940 O             1 RES     
    7935 H            2.7120     9.4910    10.9700 H             1 RES     
    7936 H            2.4640    11.0880    10.7330 H             1 RES     
    7937 O           39.5810    30.3290     8.4720 O             1 RES     
    7938 H           39.3580    30.0280     9.3990 H             1 RES     
    7939 H           39.9570    31.2550     8.5020 H             1 RES     
    7940 O           39.0340    31.4850     6.2760 O             1 RES     
    7941 H           39.8230    31.9570     5.8840 H             1 RES     
    7942 H           38.6060    32.0670     6.9680 H             1 RES     
    7943 O           51.9280    25.4840     9.4510 O             1 RES     
    7944 H           51.6380    26.3900     9.7580 H             1 RES     
    7945 H           52.0460    25.4900     8.4580 H             1 RES     
    7946 O           38.1880    -6.4410     8.2850 O             1 RES     
    7947 H           37.6010    -6.2750     7.4930 H             1 RES     
    7948 H           38.8480    -7.1610     8.0660 H             1 RES     
    7949 O           41.0920    27.4230     4.2390 O             1 RES     
    7950 H           41.1030    26.4240     4.2300 H             1 RES     
    7951 H           40.1770    27.7450     4.4800 H             1 RES     
    7952 O           33.4460     6.2360     9.2970 O             1 RES     
    7953 H           34.3530     6.6320     9.4390 H             1 RES     
    7954 H           32.8400     6.5120    10.0430 H             1 RES     
    7955 O           17.4480    -0.7770     8.3820 O             1 RES     
    7956 H           17.1810     0.0820     8.8170 H             1 RES     
    7957 H           17.0360    -1.5440     8.8750 H             1 RES     
    7958 O           44.3520    20.3160     3.9110 O             1 RES     
    7959 H           45.0440    19.7340     4.3360 H             1 RES     
    7960 H           44.1340    19.9650     3.0000 H             1 RES     
    7961 O           -6.0480    24.5980    13.9250 O             1 RES     
    7962 H           -6.1130    25.4780    13.4560 H             1 RES     
    7963 H           -5.3270    24.0470    13.5030 H             1 RES     
    7964 O           -0.2450    17.1380     7.5730 O             1 RES     
    7965 H           -1.0270    17.7600     7.5540 H             1 RES     
    7966 H            0.6000    17.6670     7.6540 H             1 RES     
    7967 O           -1.6010     0.0490     9.0730 O             1 RES     
    7968 H           -1.9990    -0.7320     8.5930 H             1 RES     
    7969 H           -2.3320     0.6100     9.4620 H             1 RES     
    7970 O           39.0260     1.0910     9.5710 O             1 RES     
    7971 H           39.7140     1.7890     9.7660 H             1 RES     
    7972 H           38.7200     0.6750    10.4270 H             1 RES     
    7973 O           51.3520    13.2460     5.1390 O             1 RES     
    7974 H           51.9200    12.5820     5.6250 H             1 RES     
    7975 H           51.0490    13.9550     5.7770 H             1 RES     
    7976 O           31.4840    14.5950    14.2010 O             1 RES     
    7977 H           32.4570    14.3820    14.1190 H             1 RES     
    7978 H           31.3600    15.5870    14.2240 H             1 RES     
    7979 O           43.9950     9.8380     3.7940 O             1 RES     
    7980 H           44.5960    10.5690     3.4750 H             1 RES     
    7981 H           44.5440     9.0400     4.0450 H             1 RES     
    7982 O            6.6190    20.3020     2.9480 O             1 RES     
    7983 H            6.2430    19.5440     2.4160 H             1 RES     
    7984 H            5.8730    20.8240     3.3590 H             1 RES     
    7985 O            5.5990    16.3080    10.3850 O             1 RES     
    7986 H            4.7980    16.7070    10.8300 H             1 RES     
    7987 H            5.3170    15.8400     9.5470 H             1 RES     
    7988 O           32.5110    36.1380     1.7720 O             1 RES     
    7989 H           31.8070    35.4300     1.7290 H             1 RES     
    7990 H           33.4130    35.7090     1.8350 H             1 RES     
    7991 O           50.2720    33.8620     3.8390 O             1 RES     
    7992 H           51.1890    34.1800     4.0740 H             1 RES     
    7993 H           50.3290    32.9540     3.4230 H             1 RES     
    7994 O           12.7750    27.0370    10.1310 O             1 RES     
    7995 H           13.2160    27.8620     9.7790 H             1 RES     
    7996 H           13.2620    26.2300     9.7970 H             1 RES     
    7997 O           45.4190     4.3660     9.7800 O             1 RES     
    7998 H           45.4530     3.4460    10.1690 H             1 RES     
    7999 H           46.3190     4.6080     9.4170 H             1 RES     
    8000 O            9.2890    32.0860     1.2680 O             1 RES     
    8001 H            9.1180    31.4290     0.5360 H             1 RES     
    8002 H            9.4350    32.9940     0.8750 H             1 RES     
    8003 O           -0.4060    19.2170    13.2780 O             1 RES     
    8004 H           -0.6410    19.7350    14.1000 H             1 RES     
    8005 H            0.1270    19.7950    12.6600 H             1 RES     
    8006 O            5.3970    16.7640    14.0010 O             1 RES     
    8007 H            5.0920    15.8320    13.8070 H             1 RES     
    8008 H            4.6200    17.3910    13.9310 H             1 RES     
    8009 O           28.4970    29.4260    11.2910 O             1 RES     
    8010 H           27.5010    29.5120    11.3190 H             1 RES     
    8011 H           28.9110    30.3360    11.2970 H             1 RES     
    8012 O           -5.3450    20.0770     7.5240 O             1 RES     
    8013 H           -6.1130    19.7370     6.9820 H             1 RES     
    8014 H           -4.4880    19.8860     7.0440 H             1 RES     
    8015 O           47.5480    37.7880     9.8570 O             1 RES     
    8016 H           48.2870    38.1260    10.4390 H             1 RES     
    8017 H           46.8290    38.4800     9.7930 H             1 RES     
    8018 O           10.4050    29.5700     2.3410 O             1 RES     
    8019 H           11.2990    29.4720     1.9040 H             1 RES     
    8020 H           10.2270    30.5370     2.5230 H             1 RES     
    8021 O            3.8640    27.4270    11.2650 O             1 RES     
    8022 H            3.5780    28.3840    11.2720 H             1 RES     
    8023 H            3.0580    26.8370    11.3280 H             1 RES     
    8024 O           33.0070    18.7910     3.8730 O             1 RES     
    8025 H           32.1070    19.2260     3.8800 H             1 RES     
    8026 H           32.8960    17.7970     3.8610 H             1 RES     
    8027 O            2.8760    28.9020    13.3310 O             1 RES     
    8028 H            2.4330    28.9710    14.2240 H             1 RES     
    8029 H            3.8200    28.5910    13.4490 H             1 RES     
    8030 O           -5.3970    14.7090    12.6020 O             1 RES     
    8031 H           -6.0680    14.7010    11.8620 H             1 RES     
    8032 H           -5.3010    13.7860    12.9750 H             1 RES     
    8033 O           49.8680    -1.6920     6.5980 O             1 RES     
    8034 H           50.7680    -2.0470     6.3480 H             1 RES     
    8035 H           49.2320    -1.8300     5.8380 H             1 RES     
    8036 O            0.7330    22.9610    14.0970 O             1 RES     
    8037 H            0.2900    22.0740    14.2240 H             1 RES     
    8038 H            1.6060    22.8340    13.6270 H             1 RES     
    8039 O           49.9920    19.3110     5.5640 O             1 RES     
    8040 H           50.0170    18.3560     5.2700 H             1 RES     
    8041 H           50.9250    19.6590     5.6460 H             1 RES     
    8042 O           12.8470    13.0860     0.5990 O             1 RES     
    8043 H           13.8030    12.9450     0.8550 H             1 RES     
    8044 H           12.2920    13.1920     1.4240 H             1 RES     
    8045 O            7.6220    17.1320     8.8470 O             1 RES     
    8046 H            7.6520    16.4640     9.5910 H             1 RES     
    8047 H            6.6790    17.2360     8.5300 H             1 RES     
    8048 O           42.5460    35.0950     3.0170 O             1 RES     
    8049 H           43.2570    35.7910     2.9310 H             1 RES     
    8050 H           42.8490    34.2520     2.5720 H             1 RES     
    8051 O           21.4530    12.3640    10.1820 O             1 RES     
    8052 H           22.1950    11.8790     9.7210 H             1 RES     
    8053 H           20.6820    11.7420    10.3210 H             1 RES     
    8054 O           47.8090    39.9920     6.1290 O             1 RES     
    8055 H           48.6640    39.8150     5.6430 H             1 RES     
    8056 H           47.8480    39.5760     7.0370 H             1 RES     
    8057 O            2.3530    14.9910     9.0930 O             1 RES     
    8058 H            3.2530    15.3940     8.9290 H             1 RES     
    8059 H            2.2110    14.2250     8.4660 H             1 RES     
    8060 O           14.9710    10.8050     7.7670 O             1 RES     
    8061 H           15.5340    11.6150     7.6050 H             1 RES     
    8062 H           15.5580    10.0320     8.0050 H             1 RES     
    8063 O           23.1130    11.0620    12.0520 O             1 RES     
    8064 H           23.9910    10.5870    12.1120 H             1 RES     
    8065 H           23.2500    11.9670    11.6490 H             1 RES     
    8066 O           23.9670    40.3540    13.4550 O             1 RES     
    8067 H           23.9890    39.7140    14.2230 H             1 RES     
    8068 H           23.4160    39.9670    12.7150 H             1 RES     
    8069 O            4.6100    31.2190     3.3680 O             1 RES     
    8070 H            4.0480    31.5940     4.1050 H             1 RES     
    8071 H            4.0390    30.6670     2.7610 H             1 RES     
    8072 O            4.7750    12.4710     5.9730 O             1 RES     
    8073 H            5.5740    11.8870     5.8290 H             1 RES     
    8074 H            4.0050    11.9120     6.2820 H             1 RES     
    8075 O           26.6210    37.8170    12.8090 O             1 RES     
    8076 H           27.1960    37.2570    12.2130 H             1 RES     
    8077 H           25.7670    38.0370    12.3380 H             1 RES     
    8078 O           13.1000     5.7320     9.5550 O             1 RES     
    8079 H           13.2010     4.9060    10.1090 H             1 RES     
    8080 H           12.7520     6.4760    10.1260 H             1 RES     
    8081 O           30.7400    19.1360     7.4700 O             1 RES     
    8082 H           31.2630    18.8330     8.2660 H             1 RES     
    8083 H           30.8020    18.4480     6.7470 H             1 RES     
    8084 O           49.5400     4.0860     8.8360 O             1 RES     
    8085 H           49.9300     4.1790     7.9200 H             1 RES     
    8086 H           48.5430     4.1450     8.7810 H             1 RES     
    8087 O           16.5190    28.6900    12.2340 O             1 RES     
    8088 H           15.9830    29.1600    12.9340 H             1 RES     
    8089 H           17.4070    28.4290    12.6130 H             1 RES     
    8090 O           18.3690    27.2290    10.9260 O             1 RES     
    8091 H           17.3780    27.1610    10.8150 H             1 RES     
    8092 H           18.6970    28.0690    10.4940 H             1 RES     
    8093 O           29.9450    -6.1400     3.1570 O             1 RES     
    8094 H           29.8980    -5.3200     2.5870 H             1 RES     
    8095 H           30.4080    -6.8700     2.6540 H             1 RES     
    8096 O            7.0020    27.3810    12.1680 O             1 RES     
    8097 H            6.1360    27.0950    11.7600 H             1 RES     
    8098 H            7.0930    28.3750    12.0950 H             1 RES     
    8099 O           47.3390    21.2420    14.2180 O             1 RES     
    8100 H           46.6680    21.9830    14.2240 H             1 RES     
    8101 H           48.2330    21.6040    13.9540 H             1 RES     
    8102 O           32.0160    25.4800     6.7890 O             1 RES     
    8103 H           31.5590    26.2350     7.2580 H             1 RES     
    8104 H           32.7840    25.8340     6.2550 H             1 RES     
    8105 O           26.6120    38.8400     8.6610 O             1 RES     
    8106 H           26.9850    37.9450     8.4210 H             1 RES     
    8107 H           25.8050    39.0270     8.1010 H             1 RES     
    8108 O           50.9600    -5.5780    14.1530 O             1 RES     
    8109 H           49.9800    -5.7680    14.2050 H             1 RES     
    8110 H           51.1010    -4.6270    13.8790 H             1 RES     
    8111 O           24.7980     7.4220    12.0700 O             1 RES     
    8112 H           25.1980     7.8540    12.8770 H             1 RES     
    8113 H           25.3600     7.6260    11.2680 H             1 RES     
    8114 O           17.4280    26.0980     8.7930 O             1 RES     
    8115 H           17.7830    27.0200     8.6460 H             1 RES     
    8116 H           16.4660    26.1490     9.0640 H             1 RES     
    8117 O            3.7340    -6.1450    14.2230 O             1 RES     
    8118 H            3.0520    -6.8750    14.2030 H             1 RES     
    8119 H            3.2750    -5.2580    14.1800 H             1 RES     
    8120 O           42.7770    26.3300    13.3490 O             1 RES     
    8121 H           43.2170    27.1530    13.7060 H             1 RES     
    8122 H           43.4440    25.5860    13.3070 H             1 RES     
    8123 O           -5.5340    -4.9260     1.9880 O             1 RES     
    8124 H           -4.9280    -5.4900     2.5480 H             1 RES     
    8125 H           -5.7650    -5.4160     1.1480 H             1 RES     
    8126 O           30.2330    26.2350     9.5340 O             1 RES     
    8127 H           29.4100    26.6630     9.1630 H             1 RES     
    8128 H           30.2490    25.2680     9.2800 H             1 RES     
    8129 O            8.5750    -3.9240     3.7710 O             1 RES     
    8130 H            9.4770    -4.0860     4.1690 H             1 RES     
    8131 H            8.6790    -3.5590     2.8450 H             1 RES     
    8132 O           46.4520    23.2350     3.0400 O             1 RES     
    8133 H           46.6350    22.8010     3.9220 H             1 RES     
    8134 H           45.4640    23.3260     2.9120 H             1 RES     
    8135 O           18.4590     3.9450     9.6750 O             1 RES     
    8136 H           17.4630     4.0280     9.6770 H             1 RES     
    8137 H           18.8650     4.8150     9.3940 H             1 RES     
    8138 O           43.0260    12.9840     9.4810 O             1 RES     
    8139 H           42.2500    13.5500     9.2050 H             1 RES     
    8140 H           43.7850    13.5710     9.7630 H             1 RES     
    8141 O           19.5110    35.9780    13.3930 O             1 RES     
    8142 H           19.7760    35.1660    12.8730 H             1 RES     
    8143 H           20.0660    36.0380    14.2230 H             1 RES     
    8144 O           18.9140    -1.5600     6.5360 O             1 RES     
    8145 H           19.2530    -2.3350     7.0680 H             1 RES     
    8146 H           19.4410    -1.4800     5.6890 H             1 RES     
    8147 O           45.7930    16.3720     8.2760 O             1 RES     
    8148 H           46.2770    17.2380     8.3990 H             1 RES     
    8149 H           46.3910    15.6150     8.5410 H             1 RES     
    8150 O           18.0120    35.4010     7.3030 O             1 RES     
    8151 H           17.3130    35.4480     8.0160 H             1 RES     
    8152 H           18.7980    34.8810     7.6400 H             1 RES     
    8153 O            6.0820    11.6700    13.9910 O             1 RES     
    8154 H            5.2220    11.9670    13.5780 H             1 RES     
    8155 H            6.0240    10.6980    14.2210 H             1 RES     
    8156 O           15.1580    34.4450     8.7450 O             1 RES     
    8157 H           14.1970    34.6570     8.9230 H             1 RES     
    8158 H           15.3380    34.5130     7.7630 H             1 RES     
    8159 O            2.6160    28.4880     5.9620 O             1 RES     
    8160 H            3.2580    28.2120     6.6750 H             1 RES     
    8161 H            2.0380    29.2300     6.3010 H             1 RES     
    8162 O           37.5330    -1.2520     2.9470 O             1 RES     
    8163 H           38.4420    -1.3580     3.3480 H             1 RES     
    8164 H           37.3980    -1.9430     2.2360 H             1 RES     
    8165 O           20.3260    11.2150     0.5340 O             1 RES     
    8166 H           21.2840    10.9300     0.5520 H             1 RES     
    8167 H           20.2750    12.2140     0.5450 H             1 RES     
    8168 O           12.8290    19.1050     2.2260 O             1 RES     
    8169 H           12.2130    19.3670     2.9680 H             1 RES     
    8170 H           12.3350    19.1350     1.3560 H             1 RES     
    8171 O           45.0300    19.9780     7.4470 O             1 RES     
    8172 H           45.6310    19.2110     7.6700 H             1 RES     
    8173 H           44.4650    19.7410     6.6570 H             1 RES     
    8174 O           30.8770    38.1680     1.7180 O             1 RES     
    8175 H           31.6830    38.0730     1.1340 H             1 RES     
    8176 H           30.6760    37.2900     2.1530 H             1 RES     
    8177 O            0.3870    -2.4900     8.1200 O             1 RES     
    8178 H            0.9030    -1.8220     8.6540 H             1 RES     
    8179 H            1.0170    -3.1570     7.7210 H             1 RES     
    8180 O           -1.1950    16.7120     4.8370 O             1 RES     
    8181 H           -0.3820    16.7020     5.4170 H             1 RES     
    8182 H           -1.1570    15.9460     4.1950 H             1 RES     
    8183 O           15.5790     7.5190     9.2010 O             1 RES     
    8184 H           14.5900     7.3780     9.1940 H             1 RES     
    8185 H           16.0390     6.6510     9.3920 H             1 RES     
    8186 O           10.1440    35.0280     8.1530 O             1 RES     
    8187 H            9.6130    34.3270     8.6270 H             1 RES     
    8188 H            9.6180    35.8780     8.1160 H             1 RES     
    8189 O           -5.1590    18.6340    10.1710 O             1 RES     
    8190 H           -5.4210    18.2260     9.2970 H             1 RES     
    8191 H           -4.9670    19.6070    10.0410 H             1 RES     
    8192 O           20.5140    35.3510    10.0400 O             1 RES     
    8193 H           20.7550    34.9350    10.9160 H             1 RES     
    8194 H           19.5290    35.2660     9.8890 H             1 RES     
    8195 O           44.9880    32.4920     7.6500 O             1 RES     
    8196 H           44.1850    32.9310     8.0520 H             1 RES     
    8197 H           45.0960    32.7960     6.7030 H             1 RES     
    8198 O           21.9810    -1.7550     6.7210 O             1 RES     
    8199 H           21.3290    -2.4100     6.3420 H             1 RES     
    8200 H           21.4870    -1.0450     7.2240 H             1 RES     
    8201 O           46.8490    22.4670     6.5190 O             1 RES     
    8202 H           46.2600    23.1340     6.0640 H             1 RES     
    8203 H           46.3310    21.6290     6.6940 H             1 RES     
    8204 O           15.8600    10.9600    13.9440 O             1 RES     
    8205 H           16.3610    10.1420    14.2240 H             1 RES     
    8206 H           16.2500    11.3160    13.0940 H             1 RES     
    8207 O            8.3290    32.5450     3.2080 O             1 RES     
    8208 H            7.6830    31.9240     2.7670 H             1 RES     
    8209 H            7.8290    33.2930     3.6440 H             1 RES     
    8210 O           10.2560    39.5080    11.4680 O             1 RES     
    8211 H           10.6660    39.7130    10.5790 H             1 RES     
    8212 H            9.9440    40.3560    11.8950 H             1 RES     
    8213 O           39.8530     1.8750    14.2050 O             1 RES     
    8214 H           38.8700     2.0540    14.2240 H             1 RES     
    8215 H           40.1310     1.6310    13.2760 H             1 RES     
    8216 O           51.2270     9.3890    13.7120 O             1 RES     
    8217 H           51.4320     9.1370    12.7670 H             1 RES     
    8218 H           51.9090    10.0440    14.0380 H             1 RES     
    8219 O           36.6480    17.7320     3.3420 O             1 RES     
    8220 H           36.9460    16.9850     3.9350 H             1 RES     
    8221 H           35.6890    17.9450     3.5290 H             1 RES     
    8222 O           49.6680    19.2380     1.3640 O             1 RES     
    8223 H           50.3870    19.7140     0.8580 H             1 RES     
    8224 H           49.5660    18.3100     1.0060 H             1 RES     
    8225 O           38.0420    16.7580     7.3400 O             1 RES     
    8226 H           37.8920    17.7170     7.1020 H             1 RES     
    8227 H           37.4720    16.1770     6.7590 H             1 RES     
    8228 O            7.1690    31.8600     5.1810 O             1 RES     
    8229 H            6.4210    31.6570     4.5500 H             1 RES     
    8230 H            7.0100    32.7480     5.6120 H             1 RES     
    8231 O           -5.4080    27.9030     5.9300 O             1 RES     
    8232 H           -4.5370    28.3510     5.7310 H             1 RES     
    8233 H           -5.2380    26.9820     6.2820 H             1 RES     
    8234 O           26.0130    40.3470    11.1550 O             1 RES     
    8235 H           26.0130    39.4660    10.6840 H             1 RES     
    8236 H           25.6900    40.2240    12.0940 H             1 RES     
    8237 O           15.1640    30.2200    10.4290 O             1 RES     
    8238 H           14.2000    29.9560    10.3990 H             1 RES     
    8239 H           15.3060    30.8830    11.1640 H             1 RES     
    8240 O           28.9350    31.4440     1.6380 O             1 RES     
    8241 H           29.5800    30.6810     1.6660 H             1 RES     
    8242 H           28.8140    31.7450     0.6920 H             1 RES     
    8243 O           32.6610     3.4180     4.9840 O             1 RES     
    8244 H           33.3900     3.5640     5.6530 H             1 RES     
    8245 H           32.5260     4.2520     4.4500 H             1 RES     
    8246 O            2.4270    27.2840     9.2670 O             1 RES     
    8247 H            3.2500    27.3590     8.7050 H             1 RES     
    8248 H            1.6820    27.7950     8.8370 H             1 RES     
    8249 O           35.8020     8.8190     0.5350 O             1 RES     
    8250 H           35.8710     9.1780     1.4650 H             1 RES     
    8251 H           35.3650     7.9200     0.5550 H             1 RES     
    8252 O           44.7610    34.6070    11.6810 O             1 RES     
    8253 H           43.9390    35.1520    11.5200 H             1 RES     
    8254 H           45.5720    35.1730    11.5310 H             1 RES     
    8255 O           44.7250    32.5560    14.2240 O             1 RES     
    8256 H           44.9000    33.0570    13.3770 H             1 RES     
    8257 H           43.8260    32.1200    14.1740 H             1 RES     
    8258 O            8.3560    -0.8040     2.4520 O             1 RES     
    8259 H            9.2760    -1.1580     2.2860 H             1 RES     
    8260 H            8.3680     0.1950     2.4010 H             1 RES     
    8261 O           36.6250     6.3390     8.0040 O             1 RES     
    8262 H           35.8620     6.8760     7.6460 H             1 RES     
    8263 H           37.4070     6.4150     7.3850 H             1 RES     
    8264 O           49.8310    12.6140    13.2890 O             1 RES     
    8265 H           49.4660    12.2700    12.4240 H             1 RES     
    8266 H           50.3560    13.4490    13.1210 H             1 RES     
    8267 O           15.0310    19.7160     9.3970 O             1 RES     
    8268 H           15.8440    19.4170     8.8970 H             1 RES     
    8269 H           15.2220    20.5830     9.8570 H             1 RES     
    8270 O           40.6780    15.2910     6.4620 O             1 RES     
    8271 H           39.8130    15.7880     6.4080 H             1 RES     
    8272 H           41.4060    15.9160     6.7450 H             1 RES     
    8273 O           52.0420    16.8340     6.2050 O             1 RES     
    8274 H           51.1100    16.4750     6.1600 H             1 RES     
    8275 H           52.0490    17.7830     5.8890 H             1 RES     
    8276 O           25.3910    37.2250     6.8970 O             1 RES     
    8277 H           26.1130    37.5200     6.2720 H             1 RES     
    8278 H           24.6810    36.7440     6.3830 H             1 RES     
    8279 O           44.1700     3.6290     1.9740 O             1 RES     
    8280 H           44.9270     4.1410     2.3780 H             1 RES     
    8281 H           43.5750     4.2550     1.4690 H             1 RES     
    8282 O           43.7350    22.9160    11.0740 O             1 RES     
    8283 H           43.4400    23.8120    11.4050 H             1 RES     
    8284 H           42.9590    22.4420    10.6570 H             1 RES     
    8285 O            9.7870     2.1380     7.9860 O             1 RES     
    8286 H           10.6590     1.8700     7.5800 H             1 RES     
    8287 H            9.4540     2.9710     7.5440 H             1 RES     
    8288 O           -3.8600    17.7810     7.1620 O             1 RES     
    8289 H           -3.5710    17.9110     8.1090 H             1 RES     
    8290 H           -3.1830    18.1850     6.5470 H             1 RES     
    8291 O           38.1920    37.8440     2.2470 O             1 RES     
    8292 H           38.0910    36.8980     1.9400 H             1 RES     
    8293 H           37.8910    37.9200     3.1970 H             1 RES     
    8294 O            4.4830    30.0250     7.8160 O             1 RES     
    8295 H            4.9060    30.9290     7.7780 H             1 RES     
    8296 H            3.4890    30.1180     7.7600 H             1 RES     
    8297 O           10.8720    20.2800    10.8250 O             1 RES     
    8298 H           11.2880    20.3520    11.7310 H             1 RES     
    8299 H            9.9140    20.5620    10.8740 H             1 RES     
    8300 O           51.3160    19.6540     8.2690 O             1 RES     
    8301 H           52.0010    20.3770     8.1880 H             1 RES     
    8302 H           50.4840    19.9260     7.7860 H             1 RES     
    8303 O           26.9450     4.5740    12.3930 O             1 RES     
    8304 H           27.0730     3.5850    12.4560 H             1 RES     
    8305 H           27.8030     5.0050    12.1120 H             1 RES     
    8306 O           23.3720    22.9130     8.2380 O             1 RES     
    8307 H           23.4030    22.3630     7.4040 H             1 RES     
    8308 H           24.2520    23.3700     8.3690 H             1 RES     
    8309 O           31.6650     0.9500     1.0980 O             1 RES     
    8310 H           32.4690     0.3950     0.8880 H             1 RES     
    8311 H           31.9450     1.8980     1.2520 H             1 RES     
    8312 O           25.3530    31.2170    12.1740 O             1 RES     
    8313 H           24.6640    31.9400    12.2040 H             1 RES     
    8314 H           26.2660    31.6260    12.1750 H             1 RES     
    8315 O           29.4730    40.2860     2.3100 O             1 RES     
    8316 H           30.4460    40.1750     2.5090 H             1 RES     
    8317 H           29.1740    39.5600     1.6900 H             1 RES     
    8318 O           32.5360    24.2430    12.1540 O             1 RES     
    8319 H           32.2130    24.6060    13.0270 H             1 RES     
    8320 H           33.4110    23.7790    12.2890 H             1 RES     
    8321 O           42.8980     1.8060     3.1970 O             1 RES     
    8322 H           42.7430     0.9040     2.7940 H             1 RES     
    8323 H           43.8770     1.9390     3.3520 H             1 RES     
    8324 O           49.1460    12.2150     5.2650 O             1 RES     
    8325 H           49.6960    11.3820     5.3190 H             1 RES     
    8326 H           48.2020    11.9770     5.0330 H             1 RES     
    8327 O           23.1530    28.4920     5.9480 O             1 RES     
    8328 H           23.8580    27.7960     5.8170 H             1 RES     
    8329 H           22.5780    28.5430     5.1300 H             1 RES     
    8330 O           43.2200    29.0480    11.6880 O             1 RES     
    8331 H           43.1970    30.0160    11.9380 H             1 RES     
    8332 H           44.1170    28.6670    11.9130 H             1 RES     
    8333 O           11.4950    29.2350     9.4220 O             1 RES     
    8334 H           12.1690    29.9720     9.3790 H             1 RES     
    8335 H           10.5740    29.6260     9.4390 H             1 RES     
    8336 O           40.6420    28.1550    13.6980 O             1 RES     
    8337 H           41.3650    28.3750    13.0440 H             1 RES     
    8338 H           40.4090    28.9730    14.2240 H             1 RES     
    8339 O           31.6320    10.3990    11.3630 O             1 RES     
    8340 H           31.6930    11.2970    11.7980 H             1 RES     
    8341 H           31.2010     9.7520    11.9910 H             1 RES     
    8342 O           49.9920    27.7820     8.3740 O             1 RES     
    8343 H           49.7230    26.9170     8.7960 H             1 RES     
    8344 H           50.7230    28.2030     8.9110 H             1 RES     
    8345 O           24.5890    11.8580     9.9070 O             1 RES     
    8346 H           25.2890    11.9210    10.6180 H             1 RES     
    8347 H           24.2440    12.7730     9.6970 H             1 RES     
    8348 O           15.7610    13.8340     5.8860 O             1 RES     
    8349 H           16.4640    14.1170     6.5380 H             1 RES     
    8350 H           15.0190    13.3750     6.3740 H             1 RES     
    8351 O           13.7730    39.4180     7.3760 O             1 RES     
    8352 H           13.3670    38.7320     6.7740 H             1 RES     
    8353 H           13.1230    40.1640     7.5180 H             1 RES     
    8354 O           33.0100    40.2200    13.9420 O             1 RES     
    8355 H           33.8510    40.3570    13.4180 H             1 RES     
    8356 H           32.6050    39.3380    13.6990 H             1 RES     
    8357 O           15.1170    29.2910     1.8480 O             1 RES     
    8358 H           15.6330    30.1460     1.8730 H             1 RES     
    8359 H           15.4620    28.6710     2.5540 H             1 RES     
    8360 O            9.5020    18.0400     0.5350 O             1 RES     
    8361 H           10.3850    17.8480     0.9600 H             1 RES     
    8362 H            8.8430    17.3360     0.8000 H             1 RES     
    8363 O           20.5030     6.4500    14.2080 O             1 RES     
    8364 H           19.7430     6.5800    13.5730 H             1 RES     
    8365 H           21.0710     7.2730    14.2220 H             1 RES     
    8366 O           24.7560    -2.9110     9.3150 O             1 RES     
    8367 H           24.5940    -1.9280     9.3840 H             1 RES     
    8368 H           23.8800    -3.3950     9.3230 H             1 RES     
    8369 O           14.9630    30.6790     4.4080 O             1 RES     
    8370 H           14.1630    30.2050     4.0410 H             1 RES     
    8371 H           15.7600    30.0760     4.3590 H             1 RES     
    8372 O           34.6810    16.6350     8.5170 O             1 RES     
    8373 H           34.8130    15.6520     8.3950 H             1 RES     
    8374 H           35.5410    17.0550     8.8070 H             1 RES     
    8375 O           15.1790    33.7500    10.8320 O             1 RES     
    8376 H           15.7510    33.4190    11.5820 H             1 RES     
    8377 H           14.7430    34.6090    11.0980 H             1 RES     
    8378 O           48.3780     7.9070     4.6730 O             1 RES     
    8379 H           47.9150     8.2090     5.5060 H             1 RES     
    8380 H           48.8470     7.0400     4.8470 H             1 RES     
    8381 O           30.6600     6.8180    11.6690 O             1 RES     
    8382 H           29.7850     6.4500    11.9820 H             1 RES     
    8383 H           31.3200     6.0740    11.5720 H             1 RES     
    8384 O           33.2940    21.9860     9.0110 O             1 RES     
    8385 H           33.4130    22.5110     9.8540 H             1 RES     
    8386 H           33.4720    22.5750     8.2230 H             1 RES     
    8387 O           34.0380     5.6840     3.0360 O             1 RES     
    8388 H           33.4480     6.4890     2.9880 H             1 RES     
    8389 H           34.9960     5.9710     3.0320 H             1 RES     
    8390 O           31.1100    15.3990     0.6410 O             1 RES     
    8391 H           30.8150    15.3670     1.5950 H             1 RES     
    8392 H           31.9670    15.9100     0.5730 H             1 RES     
    8393 O            8.4320    36.8940    12.8340 O             1 RES     
    8394 H            8.5690    37.8730    12.9820 H             1 RES     
    8395 H            7.4670    36.6680    12.9690 H             1 RES     
    8396 O            0.6930    25.9070     9.5430 O             1 RES     
    8397 H            0.9590    25.1250    10.1060 H             1 RES     
    8398 H            0.9490    25.7350     8.5920 H             1 RES     
    8399 O           33.7750     4.2290     8.4570 O             1 RES     
    8400 H           34.4150     3.7160     9.0280 H             1 RES     
    8401 H           34.2800     4.7180     7.7460 H             1 RES     
    8402 O           -4.9670    11.3390     2.8060 O             1 RES     
    8403 H           -4.9560    12.0480     3.5110 H             1 RES     
    8404 H           -4.1600    10.7570     2.9050 H             1 RES     
    8405 O           12.3040    24.3320     6.5920 O             1 RES     
    8406 H           12.2800    24.5840     5.6250 H             1 RES     
    8407 H           12.7350    23.4350     6.6920 H             1 RES     
    8408 O           22.4900    -1.9850    13.4680 O             1 RES     
    8409 H           22.6050    -0.9930    13.4680 H             1 RES     
    8410 H           23.3870    -2.4260    13.5130 H             1 RES     
    8411 O           15.6340    -7.6450    11.5600 O             1 RES     
    8412 H           16.6310    -7.7080    11.5390 H             1 RES     
    8413 H           15.3610    -6.6830    11.5760 H             1 RES     
    8414 O            0.6300    14.7100     6.6960 O             1 RES     
    8415 H            1.2740    15.4700     6.7880 H             1 RES     
    8416 H           -0.2850    15.0150     6.9610 H             1 RES     
    8417 O           -0.9240    37.0400    11.1190 O             1 RES     
    8418 H           -0.5630    36.1100    11.1730 H             1 RES     
    8419 H           -0.1670    37.6940    11.1490 H             1 RES     
    8420 O           37.3190    29.0830    11.9890 O             1 RES     
    8421 H           37.1130    28.1530    12.2900 H             1 RES     
    8422 H           36.4670    29.5640    11.7800 H             1 RES     
    8423 O           41.7890    23.9020     3.4430 O             1 RES     
    8424 H           41.7900    22.9720     3.8080 H             1 RES     
    8425 H           40.9940    24.0270     2.8490 H             1 RES     
    8426 O           46.5260     6.6260     1.9120 O             1 RES     
    8427 H           46.6800     7.5970     2.0920 H             1 RES     
    8428 H           46.3170     6.4950     0.9420 H             1 RES     
    8429 O            7.6350     7.5750    11.1990 O             1 RES     
    8430 H            8.0330     8.2650    10.5950 H             1 RES     
    8431 H            6.6720     7.4420    10.9650 H             1 RES     
    8432 O           27.3170    14.6050    14.2240 O             1 RES     
    8433 H           27.7890    15.1230    13.5110 H             1 RES     
    8434 H           26.7800    13.8720    13.8050 H             1 RES     
    8435 O           23.8350    17.7590     9.9630 O             1 RES     
    8436 H           24.7630    17.3870     9.9810 H             1 RES     
    8437 H           23.1750    17.0150    10.0640 H             1 RES     
    8438 O           21.3740    -1.0740     3.8540 O             1 RES     
    8439 H           21.9760    -1.0830     3.0570 H             1 RES     
    8440 H           20.4210    -1.0760     3.5530 H             1 RES     
    8441 O            4.0970    18.3500     9.5460 O             1 RES     
    8442 H            3.2270    18.2000    10.0150 H             1 RES     
    8443 H            4.2580    19.3330     9.4470 H             1 RES     
    8444 O            9.1480    27.0300     1.2750 O             1 RES     
    8445 H            9.8020    27.1850     0.5350 H             1 RES     
    8446 H            9.1620    27.8090     1.9020 H             1 RES     
    8447 O            0.2840    20.7280     7.2130 O             1 RES     
    8448 H           -0.4560    21.3430     7.4850 H             1 RES     
    8449 H            0.0720    19.7980     7.5140 H             1 RES     
    8450 O           13.3280    28.2230     3.5760 O             1 RES     
    8451 H           13.1770    28.6210     2.6720 H             1 RES     
    8452 H           13.6980    27.2990     3.4770 H             1 RES     
    8453 O           30.7670     0.9320     3.2860 O             1 RES     
    8454 H           30.6470    -0.0110     3.5930 H             1 RES     
    8455 H           31.7370     1.1740     3.3190 H             1 RES     
    8456 O           26.0650    25.2670     4.3260 O             1 RES     
    8457 H           26.8390    25.8180     4.0130 H             1 RES     
    8458 H           25.6530    24.7960     3.5470 H             1 RES     
    8459 O           17.5570    24.8760    13.3040 O             1 RES     
    8460 H           17.6120    25.5110    12.5340 H             1 RES     
    8461 H           17.7200    23.9430    12.9800 H             1 RES     
    8462 O           10.4110    28.5420     6.2030 O             1 RES     
    8463 H           11.3140    28.7750     5.8440 H             1 RES     
    8464 H            9.9620    29.3700     6.5400 H             1 RES     
    8465 O           35.6780    -3.2730     9.7700 O             1 RES     
    8466 H           36.5330    -2.9500     9.3670 H             1 RES     
    8467 H           35.7900    -3.3690    10.7590 H             1 RES     
    8468 O           22.7200     0.4880     6.2200 O             1 RES     
    8469 H           23.3660     0.0950     6.8720 H             1 RES     
    8470 H           22.9850     1.4300     6.0140 H             1 RES     
    8471 O           18.4020    20.8760    10.2590 O             1 RES     
    8472 H           17.5480    20.3990    10.0530 H             1 RES     
    8473 H           18.6370    21.4840     9.5000 H             1 RES     
    8474 O           28.6960    18.5530     5.6610 O             1 RES     
    8475 H           29.1060    17.6440     5.6010 H             1 RES     
    8476 H           29.3380    19.2330     5.3060 H             1 RES     
    8477 O            6.6190     4.2010     4.4540 O             1 RES     
    8478 H            7.2620     4.6310     5.0870 H             1 RES     
    8479 H            6.8160     4.5030     3.5210 H             1 RES     
    8480 O            4.8900    22.6570     1.2900 O             1 RES     
    8481 H            4.0350    22.1520     1.1730 H             1 RES     
    8482 H            5.1140    22.7120     2.2630 H             1 RES     
    8483 O           -2.0920    -2.3770    10.7510 O             1 RES     
    8484 H           -1.5520    -1.5530    10.5850 H             1 RES     
    8485 H           -1.7540    -3.1200    10.1730 H             1 RES     
    8486 O           28.9520    18.5370     8.6550 O             1 RES     
    8487 H           28.8770    18.7750     9.6220 H             1 RES     
    8488 H           29.1280    17.5560     8.5640 H             1 RES     
    8489 O           28.0650     4.9570     1.2180 O             1 RES     
    8490 H           28.7420     4.6880     0.5340 H             1 RES     
    8491 H           28.4360     4.8050     2.1340 H             1 RES     
    8492 O           12.0650    32.0510     0.8280 O             1 RES     
    8493 H           12.9150    31.6150     0.5350 H             1 RES     
    8494 H           11.3230    31.3810     0.8120 H             1 RES     
    8495 O           36.3580    36.3420     3.1750 O             1 RES     
    8496 H           35.4080    36.1740     2.9130 H             1 RES     
    8497 H           36.4060    36.5280     4.1570 H             1 RES     
    8498 O           37.5640    -5.4640     1.9030 O             1 RES     
    8499 H           36.5700    -5.4980     1.8070 H             1 RES     
    8500 H           37.9150    -6.3850     2.0740 H             1 RES     
    8501 O           39.4690    -6.4750     4.5350 O             1 RES     
    8502 H           38.8120    -5.7220     4.5270 H             1 RES     
    8503 H           40.3990    -6.1070     4.5350 H             1 RES     
    8504 O           33.6120     7.1740     7.1750 O             1 RES     
    8505 H           32.6190     7.2390     7.2600 H             1 RES     
    8506 H           33.9980     8.0880     7.0500 H             1 RES     
    8507 O           16.9360     7.7050     3.7950 O             1 RES     
    8508 H           16.2710     7.8780     4.5210 H             1 RES     
    8509 H           17.8220     7.4760     4.2000 H             1 RES     
    8510 O            3.2060     9.8520    13.6570 O             1 RES     
    8511 H            2.3610    10.3650    13.5130 H             1 RES     
    8512 H            3.8300    10.3900    14.2240 H             1 RES     
    8513 O           33.1600    -3.9690     6.6690 O             1 RES     
    8514 H           33.7120    -4.7970     6.7600 H             1 RES     
    8515 H           32.1900    -4.2040     6.7360 H             1 RES     
    8516 O           15.4060     3.7280     1.0580 O             1 RES     
    8517 H           15.5140     4.6850     0.7920 H             1 RES     
    8518 H           16.3070     3.3120     1.1830 H             1 RES     
    8519 O           43.7090     8.1120    11.9170 O             1 RES     
    8520 H           44.6210     8.0150    11.5200 H             1 RES     
    8521 H           43.6580     7.5880    12.7680 H             1 RES     
    8522 O           19.9010     8.1390     4.5330 O             1 RES     
    8523 H           20.7970     7.9690     4.1230 H             1 RES     
    8524 H           19.7890     9.1200     4.6940 H             1 RES     
    8525 O           51.8450    35.9130     6.4250 O             1 RES     
    8526 H           51.2100    36.6820     6.3620 H             1 RES     
    8527 H           51.3320    35.0660     6.5600 H             1 RES     
    8528 O           10.1370    32.7600    10.1160 O             1 RES     
    8529 H            9.5090    32.9160    10.8780 H             1 RES     
    8530 H           10.3710    31.7890    10.0690 H             1 RES     
    8531 O           25.3320    21.4510     1.4050 O             1 RES     
    8532 H           25.5550    20.5000     1.6190 H             1 RES     
    8533 H           26.1100    21.8810     0.9470 H             1 RES     
    8534 O           -4.6860     2.0710     9.9330 O             1 RES     
    8535 H           -4.6730     1.5100     9.1060 H             1 RES     
    8536 H           -3.8080     1.9910    10.4050 H             1 RES     
    8537 O           21.8340    -7.1850     2.5930 O             1 RES     
    8538 H           22.6320    -6.7220     2.9750 H             1 RES     
    8539 H           22.0260    -7.4590     1.6500 H             1 RES     
    8540 O           40.7940     0.5780     7.9710 O             1 RES     
    8541 H           41.5700     0.1660     8.4490 H             1 RES     
    8542 H           40.0210    -0.0570     7.9800 H             1 RES     
    8543 O           18.6830    13.8300     1.7200 O             1 RES     
    8544 H           18.6440    13.6780     0.7330 H             1 RES     
    8545 H           19.6350    13.9600     2.0000 H             1 RES     
    8546 O           50.5490     8.5340     7.2800 O             1 RES     
    8547 H           49.7510     9.0310     6.9400 H             1 RES     
    8548 H           50.3190     7.5660     7.3840 H             1 RES     
    8549 O            4.4690    11.3530    11.6030 O             1 RES     
    8550 H            4.7030    10.4220    11.3250 H             1 RES     
    8551 H            5.2240    11.9690    11.3770 H             1 RES     
    8552 O            2.9970    19.0660     7.3050 O             1 RES     
    8553 H            2.7650    18.2220     7.7880 H             1 RES     
    8554 H            2.2790    19.7450     7.4570 H             1 RES     
    8555 O            4.0490    16.6620     5.7790 O             1 RES     
    8556 H            5.0330    16.7920     5.8980 H             1 RES     
    8557 H            3.8550    15.6910     5.6420 H             1 RES     
    8558 O           31.9580    21.1560    12.1770 O             1 RES     
    8559 H           31.1260    21.6850    12.3390 H             1 RES     
    8560 H           32.6560    21.7470    11.7730 H             1 RES     
    8561 O           36.2120     9.4780    13.0490 O             1 RES     
    8562 H           36.1030     8.4870    13.1200 H             1 RES     
    8563 H           37.1860     9.7060    13.0240 H             1 RES     
    8564 O           24.0920     6.1360     1.2180 O             1 RES     
    8565 H           24.5670     5.2660     1.0920 H             1 RES     
    8566 H           23.1040     5.9860     1.1820 H             1 RES     
    8567 O            8.5080     2.1370     4.8580 O             1 RES     
    8568 H            7.5370     1.8990     4.8330 H             1 RES     
    8569 H            8.6380     2.9480     5.4280 H             1 RES     
    8570 O           -0.1680    11.7740     4.3360 O             1 RES     
    8571 H           -1.0790    11.9400     4.7100 H             1 RES     
    8572 H            0.0090    10.7900     4.3140 H             1 RES     
    8573 O           38.2330    35.2610     4.6080 O             1 RES     
    8574 H           37.4420    34.7130     4.8810 H             1 RES     
    8575 H           38.4260    35.9430     5.3140 H             1 RES     
    8576 O           50.1000    28.0470     5.8890 O             1 RES     
    8577 H           49.6980    27.2040     6.2440 H             1 RES     
    8578 H           50.0130    28.0650     4.8930 H             1 RES     
    8579 O            8.6410    -1.0940     7.0250 O             1 RES     
    8580 H            8.8630    -1.1610     6.0520 H             1 RES     
    8581 H            7.6840    -0.8240     7.1310 H             1 RES     
    8582 O           26.1810    -7.5080     3.4130 O             1 RES     
    8583 H           25.9320    -6.5410     3.3820 H             1 RES     
    8584 H           26.8360    -7.7080     2.6840 H             1 RES     
    8585 O           24.7710     5.1320    12.2710 O             1 RES     
    8586 H           23.8280     5.4510    12.1850 H             1 RES     
    8587 H           24.8060     4.1450    12.1160 H             1 RES     
    8588 O           21.3550    27.1530     9.1000 O             1 RES     
    8589 H           21.0630    26.1970     9.1140 H             1 RES     
    8590 H           20.5530    27.7450     9.0180 H             1 RES     
    8591 O           43.3980    20.4250     9.3280 O             1 RES     
    8592 H           44.3440    20.4530     9.6480 H             1 RES     
    8593 H           43.2020    21.2480     8.7930 H             1 RES     
    8594 O           19.5870     2.4640     7.6940 O             1 RES     
    8595 H           19.6510     3.4480     7.8610 H             1 RES     
    8596 H           18.6570     2.1520     7.8930 H             1 RES     
    8597 O           39.4090    39.5100     3.1010 O             1 RES     
    8598 H           38.8840    40.3340     2.8950 H             1 RES     
    8599 H           40.3640    39.7550     3.2700 H             1 RES     
    8600 O           16.5040    23.5950     4.8830 O             1 RES     
    8601 H           17.4070    24.0230     4.8980 H             1 RES     
    8602 H           16.6060    22.6000     4.8720 H             1 RES     
    8603 O           22.2820    19.5620    13.2200 O             1 RES     
    8604 H           21.5230    20.1420    13.5150 H             1 RES     
    8605 H           22.6960    19.1220    14.0170 H             1 RES     
    8606 O           21.7370    38.1480     9.8140 O             1 RES     
    8607 H           21.1260    37.4050     9.5430 H             1 RES     
    8608 H           21.1960    38.9140    10.1640 H             1 RES     
    8609 O            8.2950    26.2130     3.1430 O             1 RES     
    8610 H            8.1810    27.0280     3.7110 H             1 RES     
    8611 H            8.7470    25.4960     3.6740 H             1 RES     
    8612 O           28.2520    -0.6240    10.7730 O             1 RES     
    8613 H           27.3870    -0.4390    10.3070 H             1 RES     
    8614 H           28.5160    -1.5760    10.6220 H             1 RES     
    8615 O           22.2960    34.9300    13.0490 O             1 RES     
    8616 H           21.6990    34.6080    13.7840 H             1 RES     
    8617 H           21.8910    35.7380    12.6200 H             1 RES     
    8618 O           41.5130    27.3650     1.0630 O             1 RES     
    8619 H           42.4130    27.6680     0.7520 H             1 RES     
    8620 H           41.5040    27.3180     2.0620 H             1 RES     
    8621 O           29.6380    32.0150    14.2240 O             1 RES     
    8622 H           30.3770    31.3670    14.0400 H             1 RES     
    8623 H           29.7860    32.8500    13.6920 H             1 RES     
    8624 O           27.5340    14.0830    11.5820 O             1 RES     
    8625 H           26.8150    13.3930    11.6580 H             1 RES     
    8626 H           28.4270    13.6340    11.5550 H             1 RES     
    8627 O           32.8640     8.4020     1.4650 O             1 RES     
    8628 H           33.2270     8.4380     0.5340 H             1 RES     
    8629 H           33.3780     9.0320     2.0480 H             1 RES     
    8630 O           49.5800    24.1350     1.9260 O             1 RES     
    8631 H           50.5080    24.5050     1.8990 H             1 RES     
    8632 H           48.9220    24.8730     1.7740 H             1 RES     
    8633 O           47.0990    33.0660    13.5710 O             1 RES     
    8634 H           47.0570    33.8930    14.1300 H             1 RES     
    8635 H           48.0090    32.6570    13.6470 H             1 RES     
    8636 O           27.1760    21.8270     8.0870 O             1 RES     
    8637 H           26.2570    22.1370     7.8440 H             1 RES     
    8638 H           27.1200    20.9320     8.5300 H             1 RES     
    8639 O           12.1250    28.0660    12.3300 O             1 RES     
    8640 H           11.1340    27.9370    12.3040 H             1 RES     
    8641 H           12.5780    27.1740    12.3180 H             1 RES     
    8642 O           32.9700     4.3750    13.8300 O             1 RES     
    8643 H           33.7630     4.9770    13.9220 H             1 RES     
    8644 H           33.2530     3.4260    13.9690 H             1 RES     
    8645 O           26.5790    18.9930    11.0000 O             1 RES     
    8646 H           27.0030    18.1780    10.6080 H             1 RES     
    8647 H           26.0540    18.7390    11.8130 H             1 RES     
    8648 O           33.0730     2.1480     8.2660 O             1 RES     
    8649 H           33.4610     1.2310     8.1770 H             1 RES     
    8650 H           32.0810     2.0810     8.3700 H             1 RES     
    8651 O           -5.9380    -1.0860     9.2690 O             1 RES     
    8652 H           -5.4590    -0.5300     8.5910 H             1 RES     
    8653 H           -6.1110    -1.9970     8.8930 H             1 RES     
    8654 O           13.5530    36.8650     5.6230 O             1 RES     
    8655 H           13.0010    37.4470     5.0260 H             1 RES     
    8656 H           14.5140    37.1340     5.5550 H             1 RES     
    8657 O            7.0440    34.8020    10.0810 O             1 RES     
    8658 H            6.2140    34.6680     9.5420 H             1 RES     
    8659 H            7.4980    33.9220    10.2200 H             1 RES     
    8660 O           36.0880    20.3710     4.3310 O             1 RES     
    8661 H           36.1970    21.2620     4.7700 H             1 RES     
    8662 H           36.8660    19.7860     4.5610 H             1 RES     
    8663 O           40.3940    11.3320     9.6850 O             1 RES     
    8664 H           41.3320    11.6290     9.8600 H             1 RES     
    8665 H           40.2980    10.3670     9.9300 H             1 RES     
    8666 O           47.1080    10.5370     7.2260 O             1 RES     
    8667 H           46.5130     9.9500     6.6780 H             1 RES     
    8668 H           46.5850    10.9240     7.9860 H             1 RES     
    8669 O           48.5600    -7.4150    12.4190 O             1 RES     
    8670 H           49.4830    -7.1520    12.1390 H             1 RES     
    8671 H           48.3050    -6.9100    13.2430 H             1 RES     
    8672 O           34.5650    27.7480     5.6940 O             1 RES     
    8673 H           34.4230    27.4070     6.6230 H             1 RES     
    8674 H           33.7490    28.2400     5.3910 H             1 RES     
    8675 O           40.0150    10.2810     1.5780 O             1 RES     
    8676 H           40.9380     9.9050     1.4960 H             1 RES     
    8677 H           40.0650    11.2780     1.6320 H             1 RES     
    8678 O           51.8060    -5.9540     0.8300 O             1 RES     
    8679 H           52.0490    -6.4550     1.6590 H             1 RES     
    8680 H           51.2460    -5.1600     1.0710 H             1 RES     
    8681 O           18.7470    36.3550     4.3490 O             1 RES     
    8682 H           18.0340    36.2340     5.0380 H             1 RES     
    8683 H           18.3290    36.4210     3.4430 H             1 RES     
    8684 O           27.5050    35.5030    14.2200 O             1 RES     
    8685 H           27.6600    36.4900    14.2240 H             1 RES     
    8686 H           26.9580    35.2540    13.4200 H             1 RES     
    8687 O           28.5100    10.6280    11.6500 O             1 RES     
    8688 H           27.8120    11.3410    11.7070 H             1 RES     
    8689 H           29.4030    11.0150    11.8810 H             1 RES     
    8690 O           38.2590    38.3880     6.9040 O             1 RES     
    8691 H           37.7150    39.1970     7.1230 H             1 RES     
    8692 H           37.6510    37.6360     6.6480 H             1 RES     
    8693 O           17.4510    10.0010     6.2970 O             1 RES     
    8694 H           18.2460     9.3980     6.2370 H             1 RES     
    8695 H           17.5650    10.6300     7.0660 H             1 RES     
    8696 O            8.3900    19.6980     1.6050 O             1 RES     
    8697 H            7.8270    19.5050     0.8020 H             1 RES     
    8698 H            8.3460    18.9250     2.2380 H             1 RES     
    8699 O           48.5570    10.0650    10.2260 O             1 RES     
    8700 H           48.1160    10.6440     9.5420 H             1 RES     
    8701 H           49.2580    10.5910    10.7080 H             1 RES     
    8702 O           14.6150     3.3800     3.5760 O             1 RES     
    8703 H           15.0580     2.5520     3.2350 H             1 RES     
    8704 H           14.0390     3.7710     2.8590 H             1 RES     
    8705 O           16.6440    40.0150    12.9770 O             1 RES     
    8706 H           16.6200    40.3570    13.9160 H             1 RES     
    8707 H           17.5360    40.2140    12.5720 H             1 RES     
    8708 O           30.0500    12.9840    13.7690 O             1 RES     
    8709 H           30.7060    12.3740    14.2120 H             1 RES     
    8710 H           29.1490    12.8640    14.1870 H             1 RES     
    8711 O           47.4480     9.2660    13.4630 O             1 RES     
    8712 H           48.0960     9.6590    14.1150 H             1 RES     
    8713 H           47.1540     8.3660    13.7860 H             1 RES     
    8714 O           15.6140    13.2950     2.0530 O             1 RES     
    8715 H           16.5190    13.7180     2.0990 H             1 RES     
    8716 H           15.7130    12.3020     1.9840 H             1 RES     
    8717 O           35.6140    32.9050     6.0540 O             1 RES     
    8718 H           35.2920    33.8450     6.1610 H             1 RES     
    8719 H           36.6110    32.9010     5.9730 H             1 RES     
    8720 O           17.9230     5.5160     1.2820 O             1 RES     
    8721 H           17.6920     4.8940     0.5340 H             1 RES     
    8722 H           17.6050     6.4380     1.0600 H             1 RES     
    8723 O           48.1950    33.7040     1.2450 O             1 RES     
    8724 H           48.3580    32.8360     1.7120 H             1 RES     
    8725 H           48.4360    34.4610     1.8540 H             1 RES     
    8726 O           45.4750     5.6930    12.3510 O             1 RES     
    8727 H           44.6770     5.7510    11.7530 H             1 RES     
    8728 H           45.6660     4.7340    12.5610 H             1 RES     
    8729 O            1.0480    -5.7070     7.6610 O             1 RES     
    8730 H            2.0200    -5.7010     7.8930 H             1 RES     
    8731 H            0.6750    -6.6230     7.8100 H             1 RES     
    8732 O           12.2160    32.6460     7.8160 O             1 RES     
    8733 H           11.5590    33.2620     8.2480 H             1 RES     
    8734 H           12.5030    31.9490     8.4730 H             1 RES     
    8735 O           27.4210    -1.0640     5.5900 O             1 RES     
    8736 H           27.2450    -1.3930     4.6630 H             1 RES     
    8737 H           27.1600    -1.7700     6.2500 H             1 RES     
    8738 O           24.5210     4.5530     6.1860 O             1 RES     
    8739 H           23.6310     4.1690     5.9450 H             1 RES     
    8740 H           25.2290     3.8570     6.0670 H             1 RES     
    8741 O           13.8050    -0.6420    11.5720 O             1 RES     
    8742 H           13.5780    -1.5330    11.9640 H             1 RES     
    8743 H           13.4020    -0.5660    10.6590 H             1 RES     
    8744 O           35.2490    23.3870     3.3530 O             1 RES     
    8745 H           35.0240    23.3690     4.3270 H             1 RES     
    8746 H           35.3460    22.4510     3.0160 H             1 RES     
    8747 O           46.2980    20.0590     2.3760 O             1 RES     
    8748 H           47.1350    19.6100     2.0650 H             1 RES     
    8749 H           46.5110    20.9860     2.6840 H             1 RES     
    8750 O           31.3580    31.7920    10.1620 O             1 RES     
    8751 H           31.5330    30.8470    10.4380 H             1 RES     
    8752 H           32.2280    32.2560     9.9910 H             1 RES     
    8753 O            8.5030    -0.4170     9.6070 O             1 RES     
    8754 H            9.1010    -1.2180     9.6010 H             1 RES     
    8755 H            7.5480    -0.7130     9.6190 H             1 RES     
    8756 O           19.4860    30.7240     5.6430 O             1 RES     
    8757 H           19.6460    30.6170     6.6240 H             1 RES     
    8758 H           19.9230    29.9710     5.1500 H             1 RES     
    8759 O           23.7020    39.6630     8.2080 O             1 RES     
    8760 H           23.6950    38.7870     8.6890 H             1 RES     
    8761 H           22.7970    40.0850     8.2680 H             1 RES     
    8762 O           13.0820     6.9960     4.7970 O             1 RES     
    8763 H           12.3830     6.2880     4.7120 H             1 RES     
    8764 H           12.6450     7.8770     4.9830 H             1 RES     
    8765 O           12.2010    35.4530     3.2620 O             1 RES     
    8766 H           12.7500    35.4680     4.0980 H             1 RES     
    8767 H           11.9380    34.5110     3.0540 H             1 RES     
    8768 O           40.8490     1.8140     0.9590 O             1 RES     
    8769 H           41.7210     2.2950     0.8770 H             1 RES     
    8770 H           40.1090     2.4790     1.0650 H             1 RES     
    8771 O           52.0360    26.3090    11.9960 O             1 RES     
    8772 H           51.7850    26.6220    12.9110 H             1 RES     
    8773 H           51.7050    25.3750    11.8600 H             1 RES     
    8774 O           32.7640     9.1610     4.3230 O             1 RES     
    8775 H           33.1390     8.6720     5.1100 H             1 RES     
    8776 H           32.1470     8.5580     3.8180 H             1 RES     
    8777 O           30.7720    40.2330     8.6050 O             1 RES     
    8778 H           31.7610    40.3570     8.6790 H             1 RES     
    8779 H           30.5750    39.3180     8.2520 H             1 RES     
    8780 O           51.8970    -1.6420    14.0580 O             1 RES     
    8781 H           50.9650    -1.9610    14.2240 H             1 RES     
    8782 H           51.9080    -0.6420    14.0270 H             1 RES     
    8783 O           40.5890    25.3700     0.9970 O             1 RES     
    8784 H           41.4680    25.1280     0.5870 H             1 RES     
    8785 H           39.9020    24.6910     0.7380 H             1 RES     
    8786 O           42.1050     2.6040     8.5710 O             1 RES     
    8787 H           42.9320     3.1590     8.4920 H             1 RES     
    8788 H           41.5020     3.0000     9.2630 H             1 RES     
    8789 O           27.7370     3.0600     5.4000 O             1 RES     
    8790 H           27.1800     2.3050     5.7440 H             1 RES     
    8791 H           27.1700     3.6630     4.8380 H             1 RES     
    8792 O           22.5860    26.3440     6.9210 O             1 RES     
    8793 H           23.3280    25.8140     7.3290 H             1 RES     
    8794 H           21.8080    25.7440     6.7370 H             1 RES     
    8795 O           10.5770    -5.9540     7.3380 O             1 RES     
    8796 H           10.6050    -5.4850     6.4560 H             1 RES     
    8797 H           11.2990    -6.6460     7.3710 H             1 RES     
    8798 O            8.7900    -3.7880    12.3050 O             1 RES     
    8799 H            9.4260    -3.5220    11.5820 H             1 RES     
    8800 H            8.1900    -3.0180    12.5230 H             1 RES     
    8801 O           11.7150    -1.6300     6.3190 O             1 RES     
    8802 H           10.8410    -2.1120     6.2710 H             1 RES     
    8803 H           11.5730    -0.7190     6.7080 H             1 RES     
    8804 O            2.4040     7.4100    10.3270 O             1 RES     
    8805 H            1.8570     6.6910     9.9010 H             1 RES     
    8806 H            3.2780     7.4930     9.8470 H             1 RES     
    8807 O           47.5430     2.6850     5.1900 O             1 RES     
    8808 H           47.2360     2.1740     5.9920 H             1 RES     
    8809 H           46.9480     3.4770     5.0500 H             1 RES     
    8810 O            2.6530    22.2510     7.3320 O             1 RES     
    8811 H            2.6620    21.6930     6.5030 H             1 RES     
    8812 H            3.0370    21.7270     8.0920 H             1 RES     
    8813 O           33.3830    -0.2280    11.3760 O             1 RES     
    8814 H           33.7720     0.6520    11.1060 H             1 RES     
    8815 H           32.4260    -0.1040    11.6380 H             1 RES     
    8816 O           21.0170    18.0600    10.9310 O             1 RES     
    8817 H           21.1320    19.0520    10.8780 H             1 RES     
    8818 H           20.0430    17.8350    10.8930 H             1 RES     
    8819 O            9.3610    15.7030     7.3170 O             1 RES     
    8820 H            9.4400    15.5380     8.2990 H             1 RES     
    8821 H            9.3440    16.6880     7.1440 H             1 RES     
    8822 O           21.0640     8.4110     1.2590 O             1 RES     
    8823 H           20.3440     8.6140     0.5960 H             1 RES     
    8824 H           21.1700     9.1840     1.8850 H             1 RES     
    8825 O           27.8280     1.4210    11.4810 O             1 RES     
    8826 H           27.0400     1.8770    11.0700 H             1 RES     
    8827 H           28.6560     1.6610    10.9730 H             1 RES     
    8828 O           14.2080    -2.4300     5.2580 O             1 RES     
    8829 H           13.2480    -2.5000     4.9880 H             1 RES     
    8830 H           14.4380    -1.4730     5.4310 H             1 RES     
    8831 O           26.4230    31.6310     9.0660 O             1 RES     
    8832 H           25.8470    32.4340     9.2120 H             1 RES     
    8833 H           25.9010    30.9300     8.5780 H             1 RES     
    8834 O           38.3580    36.9200    13.2240 O             1 RES     
    8835 H           37.4710    36.9830    12.7680 H             1 RES     
    8836 H           38.4810    37.7100    13.8240 H             1 RES     
    8837 O           -0.8250    24.9390     5.1630 O             1 RES     
    8838 H           -1.0400    24.9330     4.1870 H             1 RES     
    8839 H           -0.9850    25.8540     5.5350 H             1 RES     
    8840 O           21.7120     5.9210    11.8050 O             1 RES     
    8841 H           21.7230     6.8540    12.1630 H             1 RES     
    8842 H           21.9500     5.9340    10.8330 H             1 RES     
    8843 O           23.7750    -0.5470     0.5340 O             1 RES     
    8844 H           23.8500     0.4050     0.8290 H             1 RES     
    8845 H           23.8710    -1.1500     1.3260 H             1 RES     
    8846 O           42.9880    10.2010     9.4660 O             1 RES     
    8847 H           42.5280     9.6080     8.8070 H             1 RES     
    8848 H           42.6820     9.9750    10.3910 H             1 RES     
    8849 O           20.7390    30.9190     8.5090 O             1 RES     
    8850 H           20.4280    30.2360     9.1690 H             1 RES     
    8851 H           21.6000    31.3200     8.8240 H             1 RES     
    8852 O           42.9810    28.2560     7.2660 O             1 RES     
    8853 H           43.4310    28.2000     6.3760 H             1 RES     
    8854 H           41.9970    28.3750     7.1360 H             1 RES     
    8855 O           28.3730    15.2130     7.4740 O             1 RES     
    8856 H           28.2700    14.4030     6.8970 H             1 RES     
    8857 H           28.8370    15.9330     6.9590 H             1 RES     
    8858 O           13.3490     9.6750     6.3420 O             1 RES     
    8859 H           14.0100     9.5170     5.6090 H             1 RES     
    8860 H           13.4700     8.9850     7.0560 H             1 RES     
    8861 O           21.6320    12.5000    13.6500 O             1 RES     
    8862 H           20.7910    11.9630    13.7080 H             1 RES     
    8863 H           21.4070    13.4750    13.6500 H             1 RES     
    8864 O            2.7120     1.7370     6.5330 O             1 RES     
    8865 H            2.1020     2.4720     6.8240 H             1 RES     
    8866 H            3.2590     2.0450     5.7530 H             1 RES     
    8867 O           34.8290    -6.0500    13.4220 O             1 RES     
    8868 H           35.3980    -5.8720    14.2240 H             1 RES     
    8869 H           34.0530    -5.4190    13.4160 H             1 RES     
    8870 O           35.7830     1.9080     4.5640 O             1 RES     
    8871 H           35.0400     2.0460     5.2180 H             1 RES     
    8872 H           36.2140     1.0210     4.7320 H             1 RES     
    8873 O           25.7270     6.0340     2.7960 O             1 RES     
    8874 H           25.4300     6.9870     2.7430 H             1 RES     
    8875 H           26.7260     5.9970     2.8360 H             1 RES     
    8876 O           25.3370     0.3520     4.0580 O             1 RES     
    8877 H           24.7690     1.1510     3.8660 H             1 RES     
    8878 H           25.0550    -0.4080     3.4720 H             1 RES     
    8879 O           25.3600    37.8860     2.2330 O             1 RES     
    8880 H           24.5310    37.5060     2.6430 H             1 RES     
    8881 H           25.1250    38.6940     1.6920 H             1 RES     
    8882 O           24.4530    34.5660    11.6710 O             1 RES     
    8883 H           24.2600    34.0790    12.5220 H             1 RES     
    8884 H           24.6110    33.9060    10.9370 H             1 RES     
    8885 O           24.0840    12.4680     6.6010 O             1 RES     
    8886 H           24.4850    13.1270     5.9660 H             1 RES     
    8887 H           23.6870    12.9540     7.3800 H             1 RES     
    8888 O            4.7930     0.4860     2.4730 O             1 RES     
    8889 H            5.3550     0.4820     1.6460 H             1 RES     
    8890 H            5.1450     1.1700     3.1120 H             1 RES     
    8891 O            7.6330    24.7650    10.1110 O             1 RES     
    8892 H            8.2150    24.2390     9.4930 H             1 RES     
    8893 H            8.1840    25.4550    10.5820 H             1 RES     
    8894 O            4.2740    36.0870     4.7050 O             1 RES     
    8895 H            4.0800    36.8850     4.1350 H             1 RES     
    8896 H            4.2400    36.3510     5.6700 H             1 RES     
    8897 O           29.6510    36.9110     9.8510 O             1 RES     
    8898 H           30.0020    37.6090    10.4750 H             1 RES     
    8899 H           28.6540    36.9720     9.8100 H             1 RES     
    8900 O           50.9760     6.3840    11.7750 O             1 RES     
    8901 H           50.4760     7.0760    11.2550 H             1 RES     
    8902 H           51.9480     6.4300    11.5440 H             1 RES     
    8903 O           15.1760     2.7890     6.4220 O             1 RES     
    8904 H           14.8380     2.0230     6.9670 H             1 RES     
    8905 H           15.5810     2.4440     5.5750 H             1 RES     
    8906 O           47.6600    25.1150     6.6770 O             1 RES     
    8907 H           47.1260    24.6610     7.3900 H             1 RES     
    8908 H           48.3900    25.6530     7.0980 H             1 RES     
    8909 O           22.9310     3.1890    10.8110 O             1 RES     
    8910 H           22.2140     3.4350    10.1600 H             1 RES     
    8911 H           22.7190     3.5820    11.7060 H             1 RES     
    8912 O           31.8430    22.5440     1.5720 O             1 RES     
    8913 H           32.7030    22.4630     1.0700 H             1 RES     
    8914 H           31.1220    22.8530     0.9510 H             1 RES     
    8915 O           13.8930     6.9620     0.9230 O             1 RES     
    8916 H           13.1440     6.4260     0.5340 H             1 RES     
    8917 H           13.7170     7.9360     0.7760 H             1 RES     
    8918 O           -0.4390    15.3530     9.6540 O             1 RES     
    8919 H            0.3330    15.8510     9.2610 H             1 RES     
    8920 H           -0.3290    14.3750     9.4800 H             1 RES     
    8921 O            0.6730    -2.2040     3.2120 O             1 RES     
    8922 H            1.5650    -1.9350     3.5720 H             1 RES     
    8923 H            0.2760    -2.9110     3.7980 H             1 RES     
    8924 O            3.9080     0.5010     9.4070 O             1 RES     
    8925 H            3.7310     0.1380     8.4930 H             1 RES     
    8926 H            3.0550     0.8410     9.8030 H             1 RES     
    8927 O            2.0130     3.9260     8.5770 O             1 RES     
    8928 H            1.1950     3.3750     8.7410 H             1 RES     
    8929 H            1.7770     4.8970     8.6300 H             1 RES     
    8930 O           25.4500     6.5700     4.9120 O             1 RES     
    8931 H           24.8530     6.6750     5.7070 H             1 RES     
    8932 H           25.9630     5.7140     4.9900 H             1 RES     
    8933 O           11.3480    -3.0580     8.1920 O             1 RES     
    8934 H           12.1900    -3.5960     8.1960 H             1 RES     
    8935 H           10.5590    -3.6730     8.1970 H             1 RES     
    8936 O           16.2950    28.5910     8.2000 O             1 RES     
    8937 H           16.0870    28.3310     9.1430 H             1 RES     
    8938 H           15.8250    29.4450     7.9780 H             1 RES     
    8939 O           49.4080    -6.9160     2.4710 O             1 RES     
    8940 H           48.6890    -7.6090     2.5180 H             1 RES     
    8941 H           49.2260    -6.2010     3.1460 H             1 RES     
    8942 O           25.9950    -7.4770     9.6860 O             1 RES     
    8943 H           26.3280    -7.6950     8.7690 H             1 RES     
    8944 H           26.4840    -6.6770    10.0360 H             1 RES     
    8945 O           22.2850    -3.6430    12.0360 O             1 RES     
    8946 H           21.3020    -3.4840    12.1170 H             1 RES     
    8947 H           22.4620    -4.2450    11.2570 H             1 RES     
    8948 O           42.1450    40.0520     8.8150 O             1 RES     
    8949 H           42.5170    39.4080     8.1470 H             1 RES     
    8950 H           41.1460    40.0370     8.7730 H             1 RES     
    8951 O            0.1470    11.9870    12.5150 O             1 RES     
    8952 H            0.4110    11.3460    13.2350 H             1 RES     
    8953 H            0.4670    11.6470    11.6310 H             1 RES     
    8954 O           23.1650    36.5490     8.0930 O             1 RES     
    8955 H           22.8120    36.1280     8.9280 H             1 RES     
    8956 H           22.4970    37.2040     7.7410 H             1 RES     
    8957 O           17.4150     0.0400     2.1190 O             1 RES     
    8958 H           18.1330     0.1210     1.4280 H             1 RES     
    8959 H           16.5240    -0.0210     1.6690 H             1 RES     
    8960 O           49.2170    12.8070     8.5380 O             1 RES     
    8961 H           49.5970    11.8840     8.4870 H             1 RES     
    8962 H           48.2670    12.7950     8.2250 H             1 RES     
    8963 O           22.6300     1.0130     3.3690 O             1 RES     
    8964 H           22.4340     1.1880     2.4040 H             1 RES     
    8965 H           22.5970     1.8730     3.8780 H             1 RES     
    8966 O           40.5000    33.9370    12.1720 O             1 RES     
    8967 H           41.1480    34.6690    11.9670 H             1 RES     
    8968 H           39.9310    34.2030    12.9510 H             1 RES     
    8969 O           16.0350    -7.2860     8.6020 O             1 RES     
    8970 H           16.1250    -6.9150     9.5260 H             1 RES     
    8971 H           16.8990    -7.7080     8.3270 H             1 RES     
    8972 O           -6.0620    27.4330    12.2250 O             1 RES     
    8973 H           -6.1140    28.4180    12.0640 H             1 RES     
    8974 H           -5.1220    27.1820    12.4570 H             1 RES     
    8975 O           39.2690    -7.1850    11.0490 O             1 RES     
    8976 H           39.0120    -6.5330    10.3350 H             1 RES     
    8977 H           40.2410    -7.0820    11.2600 H             1 RES     
    8978 O            0.8760    17.5860    10.5000 O             1 RES     
    8979 H            0.9270    18.5810    10.5840 H             1 RES     
    8980 H            0.0320    17.2580    10.9250 H             1 RES     
    8981 O           35.7150    29.5100     9.5900 O             1 RES     
    8982 H           36.1720    28.6470     9.8030 H             1 RES     
    8983 H           36.3970    30.1920     9.3270 H             1 RES     
    8984 O            5.4400    11.1670     8.3390 O             1 RES     
    8985 H            6.2380    11.7390     8.1530 H             1 RES     
    8986 H            5.2710    11.1400     9.3240 H             1 RES     
    8987 O           36.8250    32.8330    11.2950 O             1 RES     
    8988 H           36.4210    33.0710    10.4130 H             1 RES     
    8989 H           37.6080    33.4290    11.4750 H             1 RES     
    8990 O           33.3810    21.0970     4.1170 O             1 RES     
    8991 H           32.4610    21.3260     4.4330 H             1 RES     
    8992 H           34.0030    21.0570     4.9000 H             1 RES     
    8993 O           17.5780    35.0980    12.8210 O             1 RES     
    8994 H           16.9500    35.6210    12.2460 H             1 RES     
    8995 H           17.1520    34.2300    13.0770 H             1 RES     
    8996 O            9.8680    29.8070    11.5150 O             1 RES     
    8997 H           10.2420    30.4830    12.1500 H             1 RES     
    8998 H            9.1260    30.2200    10.9870 H             1 RES     
    8999 O           17.6000    -5.2040     6.2240 O             1 RES     
    9000 H           17.9510    -6.1290     6.0860 H             1 RES     
    9001 H           18.3160    -4.5390     6.0070 H             1 RES     
    9002 O           48.6780    16.2070    13.5540 O             1 RES     
    9003 H           48.7450    16.6160    12.6450 H             1 RES     
    9004 H           49.1130    16.8100    14.2240 H             1 RES     
    9005 O           12.7880    24.7450     0.8790 O             1 RES     
    9006 H           13.4900    25.3680     0.5370 H             1 RES     
    9007 H           13.2190    23.9110     1.2210 H             1 RES     
    9008 O           32.5120    16.9620     9.5790 O             1 RES     
    9009 H           32.9830    17.8400     9.4960 H             1 RES     
    9010 H           31.5250    17.1150     9.6150 H             1 RES     
    9011 O           22.9470    -4.8890    13.8200 O             1 RES     
    9012 H           22.8420    -5.8800    13.9010 H             1 RES     
    9013 H           23.9190    -4.6560    13.8090 H             1 RES     
    9014 O           38.4320    25.4650     9.3390 O             1 RES     
    9015 H           39.2290    25.9760     9.0190 H             1 RES     
    9016 H           38.3210    24.6390     8.7860 H             1 RES     
    9017 O           15.6320    35.4010     0.5370 O             1 RES     
    9018 H           16.6310    35.4170     0.5570 H             1 RES     
    9019 H           15.2820    36.3370     0.5760 H             1 RES     
    9020 O           25.1080    35.0330     8.3650 O             1 RES     
    9021 H           24.8640    35.4080     9.2580 H             1 RES     
    9022 H           24.5700    34.2090     8.1900 H             1 RES     
    9023 O            2.1570    17.5590     4.9410 O             1 RES     
    9024 H            1.9660    17.3600     5.9010 H             1 RES     
    9025 H            1.4070    18.0980     4.5560 H             1 RES     
    9026 O           42.6000     5.3420    13.9200 O             1 RES     
    9027 H           42.1730     6.1680    13.5540 H             1 RES     
    9028 H           43.5290     5.5520    14.2240 H             1 RES     
    9029 O           22.5170     9.2440    10.9650 O             1 RES     
    9030 H           21.5680     9.5410    10.8700 H             1 RES     
    9031 H           22.5900     8.2760    10.7250 H             1 RES     
    9032 O           28.1970    39.6570    10.1380 O             1 RES     
    9033 H           28.7700    39.1470     9.4980 H             1 RES     
    9034 H           28.7480    40.3560    10.5950 H             1 RES     
    9035 O           42.4920     4.0270     4.4090 O             1 RES     
    9036 H           42.7960     4.9730     4.3020 H             1 RES     
    9037 H           41.5020     3.9770     4.2790 H             1 RES     
    9038 O           39.5420    21.3730     5.6040 O             1 RES     
    9039 H           39.7120    20.4400     5.2880 H             1 RES     
    9040 H           38.7460    21.3800     6.2100 H             1 RES     
    9041 O            3.3080     6.6650     6.4560 O             1 RES     
    9042 H            3.1100     5.7270     6.7370 H             1 RES     
    9043 H            4.2410     6.9040     6.7240 H             1 RES     
    9044 O           47.9960    26.6000    11.6950 O             1 RES     
    9045 H           48.1140    27.4220    12.2520 H             1 RES     
    9046 H           47.0930    26.2060    11.8690 H             1 RES     
    9047 O           45.3800    -1.1630     7.6070 O             1 RES     
    9048 H           46.2120    -1.6490     7.8700 H             1 RES     
    9049 H           45.6210    -0.3550     7.0680 H             1 RES     
    9050 O           33.9730    34.0190     0.5430 O             1 RES     
    9051 H           34.3320    33.1050     0.7290 H             1 RES     
    9052 H           32.9730    33.9900     0.5350 H             1 RES     
    9053 O           20.2270     1.0160     2.9010 O             1 RES     
    9054 H           19.6430     1.7460     2.5460 H             1 RES     
    9055 H           20.4890     1.2270     3.8430 H             1 RES     
    9056 O           15.9570    20.1380     5.6100 O             1 RES     
    9057 H           16.7340    19.7140     6.0740 H             1 RES     
    9058 H           15.7850    19.6640     4.7460 H             1 RES     
    9059 O           13.3840    21.3780     2.5730 O             1 RES     
    9060 H           13.5830    21.0110     3.4810 H             1 RES     
    9061 H           12.6540    22.0580     2.6400 H             1 RES     
    9062 O           37.1180    35.3870     7.0910 O             1 RES     
    9063 H           36.9480    34.4780     7.4690 H             1 RES     
    9064 H           36.2470    35.8620     6.9580 H             1 RES     
    9065 O           17.5660    15.8420    12.4370 O             1 RES     
    9066 H           16.7660    16.3620    12.1390 H             1 RES     
    9067 H           17.6830    15.0420    11.8460 H             1 RES     
    9068 O           51.3790     1.8520     1.5900 O             1 RES     
    9069 H           50.8800     2.6890     1.8090 H             1 RES     
    9070 H           52.0290     1.6490     2.3230 H             1 RES     
    9071 O            6.6980    -6.4580     4.7860 O             1 RES     
    9072 H            7.3730    -5.8590     5.2150 H             1 RES     
    9073 H            5.7900    -6.2550     5.1520 H             1 RES     
    9074 O            4.3610     9.6210     6.6950 O             1 RES     
    9075 H            5.1900     9.0630     6.6930 H             1 RES     
    9076 H            3.5590     9.0270     6.7660 H             1 RES     
    9077 O           -4.8940    -0.8460    11.1910 O             1 RES     
    9078 H           -4.6270    -1.8090    11.1660 H             1 RES     
    9079 H           -4.1900    -0.2930    10.7460 H             1 RES     
    9080 O            3.2470    40.3520     5.8950 O             1 RES     
    9081 H            4.1530    39.9430     5.7880 H             1 RES     
    9082 H            2.5470    39.6440     5.7970 H             1 RES     
    9083 O           45.9810    14.7570    10.8060 O             1 RES     
    9084 H           45.9390    14.0910    10.0630 H             1 RES     
    9085 H           45.0580    15.0810    11.0170 H             1 RES     
    9086 O           22.3470    23.1740     0.9560 O             1 RES     
    9087 H           22.2670    22.2710     0.5340 H             1 RES     
    9088 H           22.6710    23.0760     1.8970 H             1 RES     
    9089 O            3.1910    38.9300   -54.3730 O             1 RES     
    9090 H            3.1180    37.9430   -54.2340 H             1 RES     
    9091 H            2.2980    39.3550   -54.2210 H             1 RES     
    9092 O            5.5070    -1.2770   -58.4840 O             1 RES     
    9093 H            5.1550    -2.1880   -58.2730 H             1 RES     
    9094 H            4.8790    -0.8130   -59.1100 H             1 RES     
    9095 O           -2.4740    38.1540   -58.6100 O             1 RES     
    9096 H           -2.5130    38.4130   -57.6450 H             1 RES     
    9097 H           -2.1680    37.2060   -58.6890 H             1 RES     
    9098 O           19.4940    28.0120   -52.8500 O             1 RES     
    9099 H           19.5400    27.7240   -51.8940 H             1 RES     
    9100 H           19.7410    28.9790   -52.9200 H             1 RES     
    9101 O           -1.2910    26.8050   -60.0630 O             1 RES     
    9102 H           -1.3890    26.7260   -59.0710 H             1 RES     
    9103 H           -0.3240    26.7400   -60.3080 H             1 RES     
    9104 O           40.0680    10.9080   -58.2200 O             1 RES     
    9105 H           39.8970    11.2150   -57.2840 H             1 RES     
    9106 H           39.5590    11.4860   -58.8590 H             1 RES     
    9107 O           13.0700    -4.5560   -51.7550 O             1 RES     
    9108 H           13.6660    -5.3580   -51.7430 H             1 RES     
    9109 H           12.1230    -4.8460   -51.8950 H             1 RES     
    9110 O           16.3860    19.0920   -57.6650 O             1 RES     
    9111 H           17.2560    18.6870   -57.9440 H             1 RES     
    9112 H           16.2860    19.9930   -58.0890 H             1 RES     
    9113 O           46.6290    19.4430   -55.0170 O             1 RES     
    9114 H           47.0920    18.7710   -55.5930 H             1 RES     
    9115 H           47.1910    19.6390   -54.2140 H             1 RES     
    9116 O           40.0810    14.3130   -64.0620 O             1 RES     
    9117 H           39.8410    15.2830   -64.0630 H             1 RES     
    9118 H           41.0760    14.2150   -64.0980 H             1 RES     
    9119 O           -0.1850    -1.0250   -56.9330 O             1 RES     
    9120 H            0.1640    -0.0890   -56.9390 H             1 RES     
    9121 H            0.5660    -1.6630   -57.1070 H             1 RES     
    9122 O           10.7440    17.6240   -51.7760 O             1 RES     
    9123 H           10.4920    16.6660   -51.6440 H             1 RES     
    9124 H           10.1650    18.2040   -51.2030 H             1 RES     
    9125 O            0.9900    29.7110   -60.8500 O             1 RES     
    9126 H            0.7550    30.3100   -60.0860 H             1 RES     
    9127 H            0.7810    30.1730   -61.7130 H             1 RES     
    9128 O           42.8680    -7.2970   -50.4080 O             1 RES     
    9129 H           42.8000    -6.3010   -50.4600 H             1 RES     
    9130 H           43.8310    -7.5660   -50.4080 H             1 RES     
    9131 O            4.5340    10.7360   -54.8590 O             1 RES     
    9132 H            4.8270     9.8370   -54.5350 H             1 RES     
    9133 H            4.0060    11.1940   -54.1440 H             1 RES     
    9134 O           19.6560    30.9540   -53.8970 O             1 RES     
    9135 H           19.2870    31.8780   -53.8010 H             1 RES     
    9136 H           20.3480    30.9450   -54.6190 H             1 RES     
    9137 O           51.4740    11.6210   -61.9330 O             1 RES     
    9138 H           52.0420    10.7990   -61.9470 H             1 RES     
    9139 H           52.0340    12.4170   -62.1660 H             1 RES     
    9140 O           38.0000    32.6360   -63.7370 O             1 RES     
    9141 H           37.1950    32.1660   -64.0980 H             1 RES     
    9142 H           38.8130    32.0760   -63.8970 H             1 RES     
    9143 O           38.5450    -6.7380   -53.7700 O             1 RES     
    9144 H           39.2830    -7.3430   -53.4720 H             1 RES     
    9145 H           38.9320    -5.9530   -54.2550 H             1 RES     
    9146 O           41.0040    36.2810   -56.7300 O             1 RES     
    9147 H           41.0890    35.7600   -55.8820 H             1 RES     
    9148 H           41.8700    36.2500   -57.2300 H             1 RES     
    9149 O           46.6230    27.6390   -61.5230 O             1 RES     
    9150 H           46.3160    28.4660   -61.9920 H             1 RES     
    9151 H           47.1570    27.8910   -60.7160 H             1 RES     
    9152 O           51.0510    26.0300   -59.3150 O             1 RES     
    9153 H           50.7590    26.1970   -58.3740 H             1 RES     
    9154 H           50.4490    26.5210   -59.9440 H             1 RES     
    9155 O           36.2860    39.1900   -51.8180 O             1 RES     
    9156 H           35.9200    38.2620   -51.7670 H             1 RES     
    9157 H           36.9700    39.3200   -51.1000 H             1 RES     
    9158 O           43.6080    -0.9090   -60.4070 O             1 RES     
    9159 H           43.4500    -0.6030   -59.4690 H             1 RES     
    9160 H           42.7510    -1.2490   -60.7960 H             1 RES     
    9161 O           33.3820    17.1370   -61.3840 O             1 RES     
    9162 H           33.5230    16.3200   -60.8260 H             1 RES     
    9163 H           32.5520    17.0280   -61.9320 H             1 RES     
    9164 O           27.4560    29.8600   -57.6720 O             1 RES     
    9165 H           27.8100    30.6530   -57.1780 H             1 RES     
    9166 H           26.8450    29.3410   -57.0740 H             1 RES     
    9167 O           16.8600     2.9130   -52.5270 O             1 RES     
    9168 H           16.5360     2.1220   -53.0440 H             1 RES     
    9169 H           16.9660     3.6940   -53.1440 H             1 RES     
    9170 O           40.9570    17.7910   -50.5350 O             1 RES     
    9171 H           39.9690    17.6640   -50.6220 H             1 RES     
    9172 H           41.3980    16.9020   -50.4080 H             1 RES     
    9173 O           -2.0760    34.7290   -59.8390 O             1 RES     
    9174 H           -2.9290    34.2360   -60.0050 H             1 RES     
    9175 H           -1.3020    34.1060   -59.9540 H             1 RES     
    9176 O           33.8380    -1.5430   -50.4980 O             1 RES     
    9177 H           33.0000    -1.9280   -50.8840 H             1 RES     
    9178 H           34.6210    -1.8250   -51.0530 H             1 RES     
    9179 O           16.2380     9.4930   -56.1160 O             1 RES     
    9180 H           15.2630     9.7090   -56.1480 H             1 RES     
    9181 H           16.3860     8.5650   -56.4570 H             1 RES     
    9182 O           13.1650    -2.7860   -50.4520 O             1 RES     
    9183 H           12.2340    -2.4250   -50.4100 H             1 RES     
    9184 H           13.8160    -2.0280   -50.4910 H             1 RES     
    9185 O           42.8830    30.3530   -53.0170 O             1 RES     
    9186 H           43.8730    30.2190   -53.0470 H             1 RES     
    9187 H           42.4280    29.4650   -52.9510 H             1 RES     
    9188 O           37.2090    -5.2590   -52.0690 O             1 RES     
    9189 H           37.2750    -6.2480   -51.9390 H             1 RES     
    9190 H           38.0310    -4.9270   -52.5300 H             1 RES     
    9191 O            4.5080    29.2920   -51.1100 O             1 RES     
    9192 H            4.9650    29.8380   -50.4080 H             1 RES     
    9193 H            3.7800    28.7500   -50.6900 H             1 RES     
    9194 O           -0.5670    36.0900   -53.8850 O             1 RES     
    9195 H           -1.3860    35.6090   -54.1950 H             1 RES     
    9196 H            0.0670    35.4380   -53.4680 H             1 RES     
    9197 O           44.5320    30.4740   -61.0380 O             1 RES     
    9198 H           45.4840    30.7550   -60.9290 H             1 RES     
    9199 H           44.4980    29.5230   -61.3470 H             1 RES     
    9200 O           13.4800    -1.1870   -53.4920 O             1 RES     
    9201 H           13.8760    -1.3810   -52.5950 H             1 RES     
    9202 H           14.2060    -1.1650   -54.1790 H             1 RES     
    9203 O           30.1460    18.5640   -60.3520 O             1 RES     
    9204 H           29.5100    19.2120   -60.7700 H             1 RES     
    9205 H           31.0830    18.8930   -60.4690 H             1 RES     
    9206 O           30.9760     3.7630   -52.9460 O             1 RES     
    9207 H           31.9290     4.0470   -53.0450 H             1 RES     
    9208 H           30.9360     2.7760   -52.7900 H             1 RES     
    9209 O            3.9300    31.0750   -56.5980 O             1 RES     
    9210 H            3.8250    30.5020   -55.7860 H             1 RES     
    9211 H            3.9920    30.4950   -57.4100 H             1 RES     
    9212 O           40.6360    10.0760   -60.7060 O             1 RES     
    9213 H           40.0010    10.5640   -61.3040 H             1 RES     
    9214 H           41.1610    10.7350   -60.1670 H             1 RES     
    9215 O           50.7290    -4.1470   -61.8300 O             1 RES     
    9216 H           51.5270    -3.5450   -61.8260 H             1 RES     
    9217 H           50.9340    -4.9750   -61.3070 H             1 RES     
    9218 O           38.2140    14.3170   -54.0490 O             1 RES     
    9219 H           38.8670    14.1310   -54.7820 H             1 RES     
    9220 H           37.9690    13.4600   -53.5960 H             1 RES     
    9221 O           -4.0470    -5.6570   -55.2770 O             1 RES     
    9222 H           -3.8360    -5.7550   -56.2490 H             1 RES     
    9223 H           -4.7970    -6.2720   -55.0350 H             1 RES     
    9224 O           22.3610     5.5020   -52.8110 O             1 RES     
    9225 H           21.4210     5.1670   -52.7600 H             1 RES     
    9226 H           22.3550     6.4970   -52.9180 H             1 RES     
    9227 O           37.6510    33.8580   -60.1970 O             1 RES     
    9228 H           37.1280    33.1380   -60.6510 H             1 RES     
    9229 H           37.7690    33.6270   -59.2310 H             1 RES     
    9230 O           28.8980    16.7410   -54.4210 O             1 RES     
    9231 H           28.1700    17.1440   -53.8670 H             1 RES     
    9232 H           28.6200    15.8290   -54.7240 H             1 RES     
    9233 O           -0.7190    39.6100   -50.7180 O             1 RES     
    9234 H           -0.5710    38.6710   -50.4080 H             1 RES     
    9235 H           -1.4750    39.6300   -51.3730 H             1 RES     
    9236 O           -3.1400    25.4330   -60.2360 O             1 RES     
    9237 H           -2.3760    25.0070   -60.7180 H             1 RES     
    9238 H           -3.0390    25.2830   -59.2520 H             1 RES     
    9239 O           31.9590     5.0530   -62.2790 O             1 RES     
    9240 H           31.3710     5.6690   -61.7550 H             1 RES     
    9241 H           32.4240     4.4240   -61.6550 H             1 RES     
    9242 O           19.0990    11.9960   -53.2170 O             1 RES     
    9243 H           18.3450    11.3420   -53.2600 H             1 RES     
    9244 H           18.8250    12.7870   -52.6690 H             1 RES     
    9245 O           22.0760    12.8390   -55.9680 O             1 RES     
    9246 H           22.0350    12.0070   -56.5210 H             1 RES     
    9247 H           21.6810    12.6620   -55.0670 H             1 RES     
    9248 O            9.8210    15.2660   -57.7160 O             1 RES     
    9249 H           10.2730    15.1440   -58.5990 H             1 RES     
    9250 H            8.9680    15.7720   -57.8450 H             1 RES     
    9251 O           25.9150    33.1650   -54.0610 O             1 RES     
    9252 H           25.0250    32.9940   -53.6400 H             1 RES     
    9253 H           25.8410    33.0570   -55.0530 H             1 RES     
    9254 O           -1.1290    37.6410   -62.1890 O             1 RES     
    9255 H           -1.8040    37.2970   -62.8410 H             1 RES     
    9256 H           -1.3440    37.3000   -61.2740 H             1 RES     
    9257 O           36.5790    16.3980   -53.5910 O             1 RES     
    9258 H           37.3490    16.4790   -54.2240 H             1 RES     
    9259 H           36.2640    17.3110   -53.3300 H             1 RES     
    9260 O           37.2620    29.4380   -53.1920 O             1 RES     
    9261 H           37.4530    29.8760   -52.3150 H             1 RES     
    9262 H           36.5520    28.7440   -53.0710 H             1 RES     
    9263 O           17.5730    14.3770   -57.1960 O             1 RES     
    9264 H           17.4480    13.6710   -56.4990 H             1 RES     
    9265 H           18.3060    14.1030   -57.8190 H             1 RES     
    9266 O           43.7880    16.9110   -63.7590 O             1 RES     
    9267 H           42.9140    17.2750   -64.0780 H             1 RES     
    9268 H           44.5330    17.4860   -64.0980 H             1 RES     
    9269 O           17.5970    36.2470   -52.9770 O             1 RES     
    9270 H           16.6000    36.1670   -52.9740 H             1 RES     
    9271 H           17.8540    37.2130   -52.9460 H             1 RES     
    9272 O           12.8110    -4.9580   -56.0560 O             1 RES     
    9273 H           13.2880    -5.7960   -56.3210 H             1 RES     
    9274 H           11.8330    -5.1450   -55.9660 H             1 RES     
    9275 O           29.0620     4.2430   -55.9720 O             1 RES     
    9276 H           29.6960     3.4810   -55.8450 H             1 RES     
    9277 H           28.5770     4.4200   -55.1150 H             1 RES     
    9278 O            5.7380    25.9270   -59.2350 O             1 RES     
    9279 H            5.8560    25.4280   -58.3770 H             1 RES     
    9280 H            4.7650    26.1020   -59.3880 H             1 RES     
    9281 O           12.9130    31.8400   -62.6440 O             1 RES     
    9282 H           13.7200    32.2920   -63.0230 H             1 RES     
    9283 H           12.2610    31.6490   -63.3780 H             1 RES     
    9284 O           43.9640    27.1580   -55.0090 O             1 RES     
    9285 H           43.9620    28.0570   -55.4450 H             1 RES     
    9286 H           43.0870    27.0070   -54.5510 H             1 RES     
    9287 O           11.5650     5.2660   -59.7900 O             1 RES     
    9288 H           11.7390     4.3290   -60.0910 H             1 RES     
    9289 H           12.4210     5.6820   -59.4800 H             1 RES     
    9290 O           17.4960    27.9320   -51.1090 O             1 RES     
    9291 H           17.3330    28.6260   -50.4090 H             1 RES     
    9292 H           17.4350    28.3500   -52.0160 H             1 RES     
    9293 O           39.0170     6.0760   -52.2160 O             1 RES     
    9294 H           39.5530     5.2970   -51.8940 H             1 RES     
    9295 H           38.8050     6.6760   -51.4440 H             1 RES     
    9296 O           15.4010    -3.9860   -52.2940 O             1 RES     
    9297 H           16.1010    -4.4780   -52.8110 H             1 RES     
    9298 H           15.3130    -3.0560   -52.6520 H             1 RES     
    9299 O           43.3470     4.3350   -61.3710 O             1 RES     
    9300 H           43.8570     4.5640   -62.1990 H             1 RES     
    9301 H           43.5850     4.9780   -60.6430 H             1 RES     
    9302 O           -4.4370    14.5900   -62.1430 O             1 RES     
    9303 H           -3.8530    13.9460   -61.6490 H             1 RES     
    9304 H           -5.2560    14.7800   -61.6020 H             1 RES     
    9305 O           37.1690     0.1770   -59.6890 O             1 RES     
    9306 H           36.4180     0.7030   -59.2900 H             1 RES     
    9307 H           37.6720    -0.2900   -58.9620 H             1 RES     
    9308 O           -0.4630     3.5230   -55.5900 O             1 RES     
    9309 H           -1.1480     4.2280   -55.4110 H             1 RES     
    9310 H            0.3720     3.9500   -55.9390 H             1 RES     
    9311 O           46.3680     6.9030   -58.0290 O             1 RES     
    9312 H           47.0680     7.6160   -58.0300 H             1 RES     
    9313 H           45.4610     7.3250   -58.0250 H             1 RES     
    9314 O           43.6920     1.5050   -60.9280 O             1 RES     
    9315 H           42.8390     1.2610   -60.4690 H             1 RES     
    9316 H           44.3890     1.7230   -60.2450 H             1 RES     
    9317 O            3.3260     0.8780   -51.8200 O             1 RES     
    9318 H            3.4300     1.8640   -51.6970 H             1 RES     
    9319 H            4.0870     0.4030   -51.3780 H             1 RES     
    9320 O           51.1870    23.1050   -57.2870 O             1 RES     
    9321 H           51.3610    22.1230   -57.2150 H             1 RES     
    9322 H           51.9820    23.6100   -56.9520 H             1 RES     
    9323 O           19.3450    14.9000   -60.7860 O             1 RES     
    9324 H           20.3090    14.7910   -61.0250 H             1 RES     
    9325 H           19.1130    15.8730   -60.7740 H             1 RES     
    9326 O           43.9220    32.6350   -53.5150 O             1 RES     
    9327 H           43.0520    33.1230   -53.4700 H             1 RES     
    9328 H           44.6740    33.2940   -53.5270 H             1 RES     
    9329 O           -0.6540    -3.2470   -60.4770 O             1 RES     
    9330 H           -0.0500    -4.0370   -60.5730 H             1 RES     
    9331 H           -1.5970    -3.5600   -60.3600 H             1 RES     
    9332 O           21.3410    26.6160   -52.5040 O             1 RES     
    9333 H           21.8250    27.1880   -51.8420 H             1 RES     
    9334 H           21.6950    25.6820   -52.4600 H             1 RES     
    9335 O           -1.6560    31.0470   -51.6720 O             1 RES     
    9336 H           -1.3530    30.2250   -52.1520 H             1 RES     
    9337 H           -2.4340    31.4490   -52.1560 H             1 RES     
    9338 O           40.5750    -2.2230   -56.1850 O             1 RES     
    9339 H           39.8230    -1.6320   -56.4730 H             1 RES     
    9340 H           41.3080    -1.6650   -55.7960 H             1 RES     
    9341 O           23.9250    21.4840   -56.4380 O             1 RES     
    9342 H           24.9200    21.4990   -56.5270 H             1 RES     
    9343 H           23.6040    20.5370   -56.4220 H             1 RES     
    9344 O           48.1520    25.8350   -54.9580 O             1 RES     
    9345 H           48.7860    26.5810   -55.1590 H             1 RES     
    9346 H           47.3170    25.9540   -55.4950 H             1 RES     
    9347 O           29.8910     6.5860   -56.2500 O             1 RES     
    9348 H           29.8330     7.0210   -57.1480 H             1 RES     
    9349 H           28.9700     6.4410   -55.8890 H             1 RES     
    9350 O           20.0780    10.0390   -59.6140 O             1 RES     
    9351 H           19.8860     9.1480   -60.0240 H             1 RES     
    9352 H           19.3060    10.6540   -59.7760 H             1 RES     
    9353 O           34.5910     3.1610   -59.8410 O             1 RES     
    9354 H           35.4190     2.7000   -60.1590 H             1 RES     
    9355 H           33.9800     2.4930   -59.4160 H             1 RES     
    9356 O           16.4890    11.3640   -59.6050 O             1 RES     
    9357 H           16.9480    11.8920   -58.8910 H             1 RES     
    9358 H           17.1730    10.9640   -60.2160 H             1 RES     
    9359 O           35.4170    39.1580   -62.4740 O             1 RES     
    9360 H           34.5490    38.6870   -62.3230 H             1 RES     
    9361 H           36.0230    38.5750   -63.0160 H             1 RES     
    9362 O           50.5340    36.4140   -63.5760 O             1 RES     
    9363 H           49.8800    35.6610   -63.6380 H             1 RES     
    9364 H           50.2710    37.0240   -62.8280 H             1 RES     
    9365 O           43.8700    28.2770   -58.4510 O             1 RES     
    9366 H           44.8050    28.4660   -58.7490 H             1 RES     
    9367 H           43.8900    27.7210   -57.6200 H             1 RES     
    9368 O           43.5660     4.3090   -55.9870 O             1 RES     
    9369 H           43.1630     3.5540   -56.5030 H             1 RES     
    9370 H           44.5630     4.2540   -56.0390 H             1 RES     
    9371 O           32.7210    -2.4750   -56.3930 O             1 RES     
    9372 H           32.5100    -3.4330   -56.5820 H             1 RES     
    9373 H           31.9710    -1.8980   -56.7160 H             1 RES     
    9374 O           -1.1500    21.3890   -63.6460 O             1 RES     
    9375 H           -1.7860    21.4310   -62.8760 H             1 RES     
    9376 H           -0.5190    22.1630   -63.6010 H             1 RES     
    9377 O            6.9220    19.9210   -59.4010 O             1 RES     
    9378 H            6.2470    20.5980   -59.6930 H             1 RES     
    9379 H            7.0700    19.2590   -60.1360 H             1 RES     
    9380 O            9.3240    -1.2020   -51.2780 O             1 RES     
    9381 H            9.7600    -2.0980   -51.3460 H             1 RES     
    9382 H            9.6570    -0.7300   -50.4610 H             1 RES     
    9383 O            6.1060    32.7340   -51.5620 O             1 RES     
    9384 H            5.6310    33.6100   -51.4810 H             1 RES     
    9385 H            6.9370    32.7530   -51.0060 H             1 RES     
    9386 O           -2.2820     6.8160   -53.0270 O             1 RES     
    9387 H           -1.8710     7.4840   -53.6460 H             1 RES     
    9388 H           -1.6680     6.0340   -52.9240 H             1 RES     
    9389 O           10.3860    34.1980   -51.0210 O             1 RES     
    9390 H           10.7520    34.9820   -51.5220 H             1 RES     
    9391 H            9.4070    34.1110   -51.2050 H             1 RES     
    9392 O           24.5950    21.3680   -60.2970 O             1 RES     
    9393 H           24.1880    21.7370   -59.4620 H             1 RES     
    9394 H           25.5070    21.7580   -60.4240 H             1 RES     
    9395 O           15.8320    26.6520   -56.1660 O             1 RES     
    9396 H           14.9050    27.0250   -56.2010 H             1 RES     
    9397 H           16.4810    27.3880   -55.9720 H             1 RES     
    9398 O           43.2500    16.2320   -53.7070 O             1 RES     
    9399 H           44.2290    16.1280   -53.8770 H             1 RES     
    9400 H           43.0190    17.2040   -53.6670 H             1 RES     
    9401 O           21.5110    16.5700   -54.0490 O             1 RES     
    9402 H           20.8810    16.2220   -53.3560 H             1 RES     
    9403 H           21.0480    17.2630   -54.6030 H             1 RES     
    9404 O           22.6200    33.1350   -62.0470 O             1 RES     
    9405 H           23.4960    33.2830   -61.5900 H             1 RES     
    9406 H           22.4450    32.1530   -62.1250 H             1 RES     
    9407 O            2.7340     7.5210   -54.0070 O             1 RES     
    9408 H            3.3360     6.7240   -53.9690 H             1 RES     
    9409 H            3.2520     8.3150   -54.3260 H             1 RES     
    9410 O           -5.4410    18.0050   -58.4230 O             1 RES     
    9411 H           -5.1350    18.4900   -59.2420 H             1 RES     
    9412 H           -4.8080    17.2570   -58.2220 H             1 RES     
    9413 O           35.8710    26.0600   -60.1090 O             1 RES     
    9414 H           34.8730    26.0570   -60.0620 H             1 RES     
    9415 H           36.2010    27.0040   -60.1280 H             1 RES     
    9416 O           27.5110     1.0700   -51.0750 O             1 RES     
    9417 H           28.4600     0.8250   -50.8810 H             1 RES     
    9418 H           27.4640     2.0300   -51.3510 H             1 RES     
    9419 O           43.8810    19.9180   -63.1270 O             1 RES     
    9420 H           44.7630    19.4490   -63.1300 H             1 RES     
    9421 H           43.1430    19.2430   -63.1220 H             1 RES     
    9422 O            6.1580    37.8190   -57.5310 O             1 RES     
    9423 H            5.5870    37.3570   -58.2090 H             1 RES     
    9424 H            6.7310    38.5010   -57.9860 H             1 RES     
    9425 O           44.4030    24.6150   -61.2370 O             1 RES     
    9426 H           45.0430    25.3390   -61.4930 H             1 RES     
    9427 H           44.7700    24.1050   -60.4590 H             1 RES     
    9428 O           34.6330    35.9510   -62.8210 O             1 RES     
    9429 H           35.5250    36.4020   -62.8090 H             1 RES     
    9430 H           33.9100    36.6410   -62.8180 H             1 RES     
    9431 O           19.7340    -3.4850   -63.3810 O             1 RES     
    9432 H           19.5430    -3.3130   -62.4160 H             1 RES     
    9433 H           20.1260    -2.6640   -63.7960 H             1 RES     
    9434 O           34.4520    29.5580   -61.2410 O             1 RES     
    9435 H           33.6050    29.0420   -61.3620 H             1 RES     
    9436 H           35.2280    28.9270   -61.2170 H             1 RES     
    9437 O           30.3050    -3.6600   -58.2720 O             1 RES     
    9438 H           31.2880    -3.8130   -58.3710 H             1 RES     
    9439 H           30.1490    -2.8500   -57.7080 H             1 RES     
    9440 O           32.4050    15.1800   -57.2920 O             1 RES     
    9441 H           32.4020    14.3500   -57.8500 H             1 RES     
    9442 H           31.4770    15.3700   -56.9720 H             1 RES     
    9443 O           35.9730    23.4190   -58.6200 O             1 RES     
    9444 H           36.7470    23.7140   -58.0600 H             1 RES     
    9445 H           35.6790    22.5080   -58.3290 H             1 RES     
    9446 O           11.2430     8.6630   -56.9380 O             1 RES     
    9447 H           11.1550     9.5570   -56.5000 H             1 RES     
    9448 H           12.1840     8.5350   -57.2510 H             1 RES     
    9449 O           36.2480    32.7480   -55.6450 O             1 RES     
    9450 H           35.9880    32.2140   -54.8410 H             1 RES     
    9451 H           35.4600    33.2750   -55.9640 H             1 RES     
    9452 O           44.8580    28.8670   -63.6400 O             1 RES     
    9453 H           43.9350    29.2080   -63.4670 H             1 RES     
    9454 H           45.4760    29.6400   -63.7890 H             1 RES     
    9455 O           17.3510    29.0310   -54.7960 O             1 RES     
    9456 H           17.9830    29.8040   -54.7430 H             1 RES     
    9457 H           17.6730    28.2940   -54.2020 H             1 RES     
    9458 O           51.3850    -1.1860   -54.3270 O             1 RES     
    9459 H           50.9170    -1.5130   -53.5060 H             1 RES     
    9460 H           51.4200    -0.1860   -54.3140 H             1 RES     
    9461 O           17.2360     5.4560   -57.6040 O             1 RES     
    9462 H           16.4820     4.8160   -57.4590 H             1 RES     
    9463 H           16.8760     6.3870   -57.6650 H             1 RES     
    9464 O            6.6140     8.1830   -56.1290 O             1 RES     
    9465 H            7.2210     8.6820   -56.7470 H             1 RES     
    9466 H            7.1590     7.7040   -55.4410 H             1 RES     
    9467 O            5.5870    19.1310   -55.9580 O             1 RES     
    9468 H            4.6350    19.3910   -56.1170 H             1 RES     
    9469 H            5.7340    18.9880   -54.9790 H             1 RES     
    9470 O           35.1230    -6.9450   -52.3480 O             1 RES     
    9471 H           34.7020    -7.7040   -51.8530 H             1 RES     
    9472 H           34.4100    -6.3290   -52.6840 H             1 RES     
    9473 O           19.9730    16.9940   -62.8590 O             1 RES     
    9474 H           18.9960    16.8080   -62.7620 H             1 RES     
    9475 H           20.4870    16.1430   -62.7580 H             1 RES     
    9476 O           32.7800    27.2100   -60.3350 O             1 RES     
    9477 H           32.0900    27.8780   -60.0570 H             1 RES     
    9478 H           32.7240    26.4060   -59.7440 H             1 RES     
    9479 O            1.3590     4.5120   -60.5140 O             1 RES     
    9480 H            0.5100     4.0110   -60.3550 H             1 RES     
    9481 H            1.5950     5.0390   -59.6970 H             1 RES     
    9482 O           -0.0680     8.1740   -55.4680 O             1 RES     
    9483 H           -0.7270     7.4690   -55.7270 H             1 RES     
    9484 H           -0.4790     9.0770   -55.5900 H             1 RES     
    9485 O            5.2300    15.7150   -60.5610 O             1 RES     
    9486 H            4.5160    15.0260   -60.4400 H             1 RES     
    9487 H            6.0720    15.2720   -60.8690 H             1 RES     
    9488 O           27.5950    36.7400   -60.2160 O             1 RES     
    9489 H           26.9850    37.4620   -59.8930 H             1 RES     
    9490 H           28.4900    37.1310   -60.4350 H             1 RES     
    9491 O           -5.8080    17.0180   -63.8000 O             1 RES     
    9492 H           -5.8850    18.0130   -63.7640 H             1 RES     
    9493 H           -5.7190    16.6550   -62.8720 H             1 RES     
    9494 O           10.2090    23.7360   -57.6460 O             1 RES     
    9495 H           11.1810    23.6110   -57.4520 H             1 RES     
    9496 H            9.9920    24.7120   -57.6530 H             1 RES     
    9497 O           -4.6380    34.0860   -56.3780 O             1 RES     
    9498 H           -4.2410    34.8490   -55.8690 H             1 RES     
    9499 H           -4.3150    34.1110   -57.3240 H             1 RES     
    9500 O           28.5920     9.2830   -50.5970 O             1 RES     
    9501 H           27.6510     9.3090   -50.9320 H             1 RES     
    9502 H           28.9040    10.2150   -50.4080 H             1 RES     
    9503 O           42.3460    25.5090   -60.9540 O             1 RES     
    9504 H           42.5390    25.5570   -61.9340 H             1 RES     
    9505 H           42.2780    24.5510   -60.6740 H             1 RES     
    9506 O            9.3440    12.8460   -50.6190 O             1 RES     
    9507 H            9.2650    13.6710   -51.1770 H             1 RES     
    9508 H           10.3040    12.5730   -50.5580 H             1 RES     
    9509 O           26.8740    14.0810   -56.3370 O             1 RES     
    9510 H           26.3520    13.7090   -57.1050 H             1 RES     
    9511 H           26.2620    14.5960   -55.7370 H             1 RES     
    9512 O           18.1850    36.3600   -50.6460 O             1 RES     
    9513 H           18.6590    35.5110   -50.4140 H             1 RES     
    9514 H           18.7640    37.1410   -50.4090 H             1 RES     
    9515 O           22.1780    29.3100   -63.9530 O             1 RES     
    9516 H           23.1410    29.5370   -64.0980 H             1 RES     
    9517 H           22.0940    28.3370   -63.7350 H             1 RES     
    9518 O           31.5680    30.7560   -61.2590 O             1 RES     
    9519 H           32.4200    30.8520   -61.7740 H             1 RES     
    9520 H           31.6020    29.9210   -60.7110 H             1 RES     
    9521 O            4.0900    -1.7640   -53.0620 O             1 RES     
    9522 H            3.3320    -1.3270   -52.5810 H             1 RES     
    9523 H            4.6710    -2.2440   -52.4040 H             1 RES     
    9524 O           33.0450    20.3140   -62.7440 O             1 RES     
    9525 H           32.2420    19.7630   -62.5220 H             1 RES     
    9526 H           32.7750    21.2720   -62.8480 H             1 RES     
    9527 O           31.9370     1.6770   -59.3630 O             1 RES     
    9528 H           31.8600     1.7600   -60.3560 H             1 RES     
    9529 H           31.0240     1.6020   -58.9620 H             1 RES     
    9530 O           17.6860    31.5050   -58.0720 O             1 RES     
    9531 H           18.6840    31.4590   -58.0720 H             1 RES     
    9532 H           17.3080    30.5810   -58.0150 H             1 RES     
    9533 O           13.9260    11.4310   -56.4440 O             1 RES     
    9534 H           13.4530    12.2360   -56.0870 H             1 RES     
    9535 H           13.2700    10.8390   -56.9140 H             1 RES     
    9536 O           23.5900     8.0930   -52.0430 O             1 RES     
    9537 H           23.9820     8.8290   -51.4920 H             1 RES     
    9538 H           24.3210     7.6140   -52.5280 H             1 RES     
    9539 O           17.2950    33.9060   -59.1180 O             1 RES     
    9540 H           18.1940    33.6860   -59.4930 H             1 RES     
    9541 H           16.6300    33.2220   -59.4190 H             1 RES     
    9542 O           48.2530    16.3040   -61.6380 O             1 RES     
    9543 H           47.6660    16.4520   -60.8430 H             1 RES     
    9544 H           47.6910    16.2630   -62.4650 H             1 RES     
    9545 O            4.0940    14.9170   -57.9900 O             1 RES     
    9546 H            3.9290    15.7370   -57.4420 H             1 RES     
    9547 H            5.0420    14.9120   -58.3060 H             1 RES     
    9548 O           49.9320    20.0470   -51.7050 O             1 RES     
    9549 H           49.5260    19.8080   -50.8230 H             1 RES     
    9550 H           49.3250    19.7500   -52.4430 H             1 RES     
    9551 O           18.5410    -3.0110   -53.6030 O             1 RES     
    9552 H           18.7030    -3.9930   -53.6910 H             1 RES     
    9553 H           17.6550    -2.8560   -53.1670 H             1 RES     
    9554 O           37.5610    34.3540   -62.4330 O             1 RES     
    9555 H           37.9990    35.2300   -62.2350 H             1 RES     
    9556 H           36.5750    34.4880   -62.5360 H             1 RES     
    9557 O           16.9140    31.1500   -60.1050 O             1 RES     
    9558 H           17.7020    31.6280   -60.4920 H             1 RES     
    9559 H           16.1150    31.2970   -60.6880 H             1 RES     
    9560 O           18.8250    -5.7460   -51.5880 O             1 RES     
    9561 H           19.5930    -6.2700   -51.2220 H             1 RES     
    9562 H           19.0860    -4.7840   -51.6700 H             1 RES     
    9563 O            0.8550    18.0410   -52.5630 O             1 RES     
    9564 H           -0.1000    18.3300   -52.6250 H             1 RES     
    9565 H            0.8970    17.0460   -52.4700 H             1 RES     
    9566 O           11.9090    -4.6350   -58.2310 O             1 RES     
    9567 H           10.9670    -4.4890   -58.5320 H             1 RES     
    9568 H           12.0870    -5.6160   -58.1560 H             1 RES     
    9569 O            0.2730    11.3060   -61.9100 O             1 RES     
    9570 H            0.5190    10.9390   -62.8060 H             1 RES     
    9571 H            0.5910    10.6830   -61.1950 H             1 RES     
    9572 O           12.6950    26.5330   -58.1660 O             1 RES     
    9573 H           13.4210    27.1940   -58.3550 H             1 RES     
    9574 H           12.5430    26.4770   -57.1790 H             1 RES     
    9575 O           27.7070    22.0810   -56.7800 O             1 RES     
    9576 H           26.8680    22.5720   -56.5480 H             1 RES     
    9577 H           27.8710    22.1470   -57.7650 H             1 RES     
    9578 O           31.9810    14.6400   -52.7280 O             1 RES     
    9579 H           32.6640    13.9160   -52.6450 H             1 RES     
    9580 H           32.4390    15.5290   -52.7670 H             1 RES     
    9581 O            7.8340    13.5870   -59.9690 O             1 RES     
    9582 H            7.7650    14.4150   -59.4120 H             1 RES     
    9583 H            6.9240    13.3250   -60.2910 H             1 RES     
    9584 O           50.9560    -5.1050   -58.1010 O             1 RES     
    9585 H           51.8590    -5.1000   -58.5280 H             1 RES     
    9586 H           50.9710    -5.6990   -57.2960 H             1 RES     
    9587 O           44.1710     1.0960   -54.0850 O             1 RES     
    9588 H           43.3260     0.6410   -54.3650 H             1 RES     
    9589 H           43.9590     1.8130   -53.4210 H             1 RES     
    9590 O           47.1350    10.2110   -51.6100 O             1 RES     
    9591 H           47.6480    10.8430   -52.1900 H             1 RES     
    9592 H           46.4270     9.7590   -52.1530 H             1 RES     
    9593 O            9.7290    10.2640   -53.5680 O             1 RES     
    9594 H            9.5510    10.2660   -52.5850 H             1 RES     
    9595 H            8.9030     9.9830   -54.0570 H             1 RES     
    9596 O           35.1360    26.2150   -62.3430 O             1 RES     
    9597 H           34.1670    26.4120   -62.4830 H             1 RES     
    9598 H           35.2470    25.2570   -62.0780 H             1 RES     
    9599 O           10.5850    15.9740   -62.9190 O             1 RES     
    9600 H           11.4590    16.2750   -62.5390 H             1 RES     
    9601 H           10.7490    15.2900   -63.6310 H             1 RES     
    9602 O           27.2180     1.3210   -57.8510 O             1 RES     
    9603 H           28.1830     1.0640   -57.8560 H             1 RES     
    9604 H           26.6530     0.4960   -57.8440 H             1 RES     
    9605 O            6.8920    23.7590   -55.4480 O             1 RES     
    9606 H            7.2250    23.0530   -54.8240 H             1 RES     
    9607 H            7.5870    23.9450   -56.1430 H             1 RES     
    9608 O           36.9030    10.8630   -59.8630 O             1 RES     
    9609 H           35.9580    10.8700   -59.5380 H             1 RES     
    9610 H           37.4820    10.3950   -59.1950 H             1 RES     
    9611 O           29.8200    23.1570   -51.2570 O             1 RES     
    9612 H           30.5200    22.8570   -50.6100 H             1 RES     
    9613 H           29.1640    23.7500   -50.7890 H             1 RES     
    9614 O           51.4730     9.0310   -63.8440 O             1 RES     
    9615 H           52.0480     9.8080   -64.0980 H             1 RES     
    9616 H           52.0490     8.2330   -63.6640 H             1 RES     
    9617 O           24.8250    16.2420   -63.6530 O             1 RES     
    9618 H           23.8340    16.1580   -63.5550 H             1 RES     
    9619 H           25.2650    16.0450   -62.7760 H             1 RES     
    9620 O            3.1450    20.3500   -51.9130 O             1 RES     
    9621 H            4.1390    20.2820   -51.8380 H             1 RES     
    9622 H            2.8530    21.2730   -51.6600 H             1 RES     
    9623 O           11.9380    35.4740   -56.6520 O             1 RES     
    9624 H           11.5230    35.8340   -55.8180 H             1 RES     
    9625 H           11.9410    36.1840   -57.3570 H             1 RES     
    9626 O           41.8910    10.5990   -62.4360 O             1 RES     
    9627 H           42.7120    11.1580   -62.5380 H             1 RES     
    9628 H           41.8670     9.9060   -63.1580 H             1 RES     
    9629 O           26.4560     5.2290   -59.9900 O             1 RES     
    9630 H           26.0050     4.3370   -60.0160 H             1 RES     
    9631 H           27.3990     5.1170   -59.6750 H             1 RES     
    9632 O           22.0480    23.2370   -61.3930 O             1 RES     
    9633 H           21.5660    23.9600   -60.8990 H             1 RES     
    9634 H           21.4010    22.5190   -61.6500 H             1 RES     
    9635 O           -4.8580    15.6310   -54.2750 O             1 RES     
    9636 H           -4.3020    14.8000   -54.2780 H             1 RES     
    9637 H           -4.7050    16.1380   -55.1240 H             1 RES     
    9638 O           25.9080    34.7250   -57.7470 O             1 RES     
    9639 H           25.8160    35.6390   -57.3540 H             1 RES     
    9640 H           25.1920    34.1300   -57.3810 H             1 RES     
    9641 O           42.0170    10.6050   -57.2290 O             1 RES     
    9642 H           42.0170     9.6110   -57.1290 H             1 RES     
    9643 H           42.9600    10.9380   -57.2600 H             1 RES     
    9644 O           31.2630     0.0820   -52.6220 O             1 RES     
    9645 H           31.5190     0.7250   -53.3430 H             1 RES     
    9646 H           30.7580     0.5660   -51.9070 H             1 RES     
    9647 O           -5.5300    39.0190   -58.8970 O             1 RES     
    9648 H           -5.4750    40.0170   -58.9100 H             1 RES     
    9649 H           -4.6090    38.6340   -58.8400 H             1 RES     
    9650 O           36.3570    18.8360   -51.6550 O             1 RES     
    9651 H           36.9870    19.2270   -52.3260 H             1 RES     
    9652 H           36.5220    19.2500   -50.7600 H             1 RES     
    9653 O           25.8920     6.1090   -53.3400 O             1 RES     
    9654 H           26.2050     5.4710   -52.6370 H             1 RES     
    9655 H           26.3250     7.0000   -53.1970 H             1 RES     
    9656 O           20.7080     6.7340   -50.6050 O             1 RES     
    9657 H           19.7590     6.9780   -50.4090 H             1 RES     
    9658 H           20.8370     5.7530   -50.4600 H             1 RES     
    9659 O           17.9250    36.5690   -57.4610 O             1 RES     
    9660 H           17.6080    36.3500   -56.5390 H             1 RES     
    9661 H           18.1790    35.7270   -57.9360 H             1 RES     
    9662 O            2.5690    -6.0750   -58.2060 O             1 RES     
    9663 H            1.9320    -6.6110   -57.6520 H             1 RES     
    9664 H            3.1890    -5.5700   -57.6050 H             1 RES     
    9665 O           17.6300    31.7590   -55.6870 O             1 RES     
    9666 H           17.4240    32.5830   -55.1610 H             1 RES     
    9667 H           18.6090    31.7270   -55.8880 H             1 RES     
    9668 O           42.4580    22.7290   -56.2910 O             1 RES     
    9669 H           43.0790    23.4820   -56.0740 H             1 RES     
    9670 H           42.9880    21.9020   -56.4780 H             1 RES     
    9671 O            9.4160    29.3570   -57.0500 O             1 RES     
    9672 H            8.8300    29.4480   -57.8540 H             1 RES     
    9673 H            9.3650    28.4200   -56.7030 H             1 RES     
    9674 O           43.8530    31.4430   -58.9130 O             1 RES     
    9675 H           44.5990    31.8680   -58.4010 H             1 RES     
    9676 H           43.8480    30.4580   -58.7400 H             1 RES     
    9677 O           -1.3920    -6.6250   -60.6790 O             1 RES     
    9678 H           -0.4320    -6.4260   -60.8730 H             1 RES     
    9679 H           -1.9380    -5.7980   -60.8140 H             1 RES     
    9680 O            0.6870    35.1840   -55.7720 O             1 RES     
    9681 H            1.2800    35.8390   -55.3050 H             1 RES     
    9682 H            1.0450    34.2590   -55.6440 H             1 RES     
    9683 O           21.5860    37.7070   -53.4170 O             1 RES     
    9684 H           20.6470    37.3790   -53.3240 H             1 RES     
    9685 H           22.2160    36.9310   -53.3880 H             1 RES     
    9686 O            9.6120    27.1710   -53.7840 O             1 RES     
    9687 H            9.7330    27.6440   -54.6560 H             1 RES     
    9688 H           10.2260    26.3820   -53.7440 H             1 RES     
    9689 O           10.6910    24.3250   -61.0820 O             1 RES     
    9690 H           10.6380    25.2980   -61.3030 H             1 RES     
    9691 H           10.4060    24.1820   -60.1340 H             1 RES     
    9692 O           27.0200    25.1050   -57.4430 O             1 RES     
    9693 H           27.7550    24.4870   -57.1670 H             1 RES     
    9694 H           26.3090    25.1140   -56.7390 H             1 RES     
    9695 O            5.8880    25.0520   -52.5980 O             1 RES     
    9696 H            6.0830    26.0310   -52.6370 H             1 RES     
    9697 H            4.9260    24.9120   -52.3650 H             1 RES     
    9698 O           27.1040     2.0130   -63.1790 O             1 RES     
    9699 H           26.1510     2.1800   -62.9280 H             1 RES     
    9700 H           27.1430     1.6170   -64.0970 H             1 RES     
    9701 O           36.1970    17.9980   -62.4750 O             1 RES     
    9702 H           36.6550    17.7090   -63.3150 H             1 RES     
    9703 H           35.2300    18.1680   -62.6630 H             1 RES     
    9704 O           37.2080    21.6470   -61.4590 O             1 RES     
    9705 H           38.1660    21.7700   -61.2010 H             1 RES     
    9706 H           36.7550    22.5380   -61.4940 H             1 RES     
    9707 O           34.5040     8.7140   -60.6730 O             1 RES     
    9708 H           35.4320     8.3480   -60.7380 H             1 RES     
    9709 H           34.5330     9.7110   -60.7490 H             1 RES     
    9710 O           11.1570     4.8310   -52.4500 O             1 RES     
    9711 H           12.0070     4.3180   -52.5680 H             1 RES     
    9712 H           10.3780     4.2080   -52.5230 H             1 RES     
    9713 O            8.9810    35.9990   -58.5410 O             1 RES     
    9714 H            9.2840    35.0750   -58.7700 H             1 RES     
    9715 H            9.7780    36.5900   -58.4120 H             1 RES     
    9716 O           15.3070    39.8270   -58.9510 O             1 RES     
    9717 H           15.4870    39.2020   -58.1920 H             1 RES     
    9718 H           14.4810    40.3570   -58.7600 H             1 RES     
    9719 O           21.7930    -2.6960   -60.2190 O             1 RES     
    9720 H           21.6850    -1.7190   -60.0340 H             1 RES     
    9721 H           21.1200    -2.9830   -60.9010 H             1 RES     
    9722 O           32.4800     4.5110   -55.1260 O             1 RES     
    9723 H           32.0430     5.4100   -55.1190 H             1 RES     
    9724 H           31.7830     3.8010   -55.2270 H             1 RES     
    9725 O           19.3750    30.1250   -60.6720 O             1 RES     
    9726 H           19.8090    31.0250   -60.6740 H             1 RES     
    9727 H           20.0730    29.4170   -60.5670 H             1 RES     
    9728 O           11.5110    -2.7650   -56.8090 O             1 RES     
    9729 H           11.1800    -2.3520   -57.6570 H             1 RES     
    9730 H           12.2860    -2.2370   -56.4610 H             1 RES     
    9731 O           24.6090    13.4010   -50.6100 O             1 RES     
    9732 H           24.9530    12.4800   -50.4300 H             1 RES     
    9733 H           23.6290    13.4370   -50.4100 H             1 RES     
    9734 O           29.7870    27.1030   -58.8460 O             1 RES     
    9735 H           29.9700    28.0850   -58.8830 H             1 RES     
    9736 H           30.6390    26.5990   -58.9870 H             1 RES     
    9737 O           -5.4590    31.0260   -51.5340 O             1 RES     
    9738 H           -4.5180    30.7590   -51.7420 H             1 RES     
    9739 H           -6.0450    30.8210   -52.3190 H             1 RES     
    9740 O           38.8450     7.6430   -62.0200 O             1 RES     
    9741 H           38.4230     6.8100   -61.6650 H             1 RES     
    9742 H           39.4740     8.0160   -61.3380 H             1 RES     
    9743 O           20.1880    23.1140   -59.2210 O             1 RES     
    9744 H           19.4160    22.5600   -58.9120 H             1 RES     
    9745 H           20.9960    22.5330   -59.3250 H             1 RES     
    9746 O           33.8290    36.3070   -57.3720 O             1 RES     
    9747 H           34.6490    36.6950   -57.7900 H             1 RES     
    9748 H           33.0200    36.6150   -57.8740 H             1 RES     
    9749 O            2.6490    -6.8620   -50.5140 O             1 RES     
    9750 H            3.4180    -7.4970   -50.5740 H             1 RES     
    9751 H            2.9930    -5.9280   -50.4090 H             1 RES     
    9752 O           48.0940    -4.0260   -56.2600 O             1 RES     
    9753 H           49.0330    -4.3630   -56.2090 H             1 RES     
    9754 H           48.1020    -3.0320   -56.3770 H             1 RES     
    9755 O           30.7620    16.6120   -50.6490 O             1 RES     
    9756 H           30.6500    17.5760   -50.4090 H             1 RES     
    9757 H           29.9110    16.1210   -50.4610 H             1 RES     
    9758 O           39.4360    -2.8930   -59.9070 O             1 RES     
    9759 H           38.8210    -2.3380   -59.3480 H             1 RES     
    9760 H           40.3660    -2.5290   -59.8440 H             1 RES     
    9761 O           31.3890    30.7430   -52.2870 O             1 RES     
    9762 H           32.2650    30.5470   -52.7270 H             1 RES     
    9763 H           31.5120    30.7650   -51.2950 H             1 RES     
    9764 O           38.1340    12.1050   -55.3210 O             1 RES     
    9765 H           37.2460    12.5430   -55.4640 H             1 RES     
    9766 H           38.0760    11.4780   -54.5450 H             1 RES     
    9767 O           -1.1020    15.7300   -54.5150 O             1 RES     
    9768 H           -1.1430    16.7070   -54.7200 H             1 RES     
    9769 H           -1.8900    15.2700   -54.9240 H             1 RES     
    9770 O           34.8530    27.8590   -58.2650 O             1 RES     
    9771 H           35.7090    28.3750   -58.2400 H             1 RES     
    9772 H           34.2710    28.2120   -58.9980 H             1 RES     
    9773 O           47.4090    24.6540   -60.9470 O             1 RES     
    9774 H           47.1300    25.6080   -60.8440 H             1 RES     
    9775 H           48.4070    24.6000   -60.9790 H             1 RES     
    9776 O           -0.1870     5.5830   -57.8250 O             1 RES     
    9777 H           -0.4920     5.2020   -58.6970 H             1 RES     
    9778 H           -0.9720     5.6880   -57.2140 H             1 RES     
    9779 O           42.5740    -6.2310   -53.2120 O             1 RES     
    9780 H           43.2010    -6.9010   -53.6070 H             1 RES     
    9781 H           43.0640    -5.6650   -52.5490 H             1 RES     
    9782 O           10.3810    27.6450   -64.0980 O             1 RES     
    9783 H           11.1500    27.5420   -63.4680 H             1 RES     
    9784 H           10.0650    28.5930   -64.0880 H             1 RES     
    9785 O           44.0620    38.3520   -52.1550 O             1 RES     
    9786 H           44.5400    39.2190   -52.0170 H             1 RES     
    9787 H           44.7140    37.5970   -52.0890 H             1 RES     
    9788 O           10.5530    -0.8410   -54.3650 O             1 RES     
    9789 H           11.0450    -1.4930   -53.7870 H             1 RES     
    9790 H           10.9010    -0.8970   -55.3010 H             1 RES     
    9791 O           27.3670    14.3940   -51.3550 O             1 RES     
    9792 H           27.6820    14.3370   -50.4080 H             1 RES     
    9793 H           28.1530    14.5170   -51.9610 H             1 RES     
    9794 O           43.1370    -5.8960   -56.2290 O             1 RES     
    9795 H           42.5800    -6.5220   -55.6840 H             1 RES     
    9796 H           43.4140    -5.1180   -55.6650 H             1 RES     
    9797 O           44.8970    -5.4090   -50.5560 O             1 RES     
    9798 H           44.8840    -5.0370   -51.4830 H             1 RES     
    9799 H           45.5350    -6.1780   -50.5130 H             1 RES     
    9800 O            7.6660     0.2620   -52.6990 O             1 RES     
    9801 H            8.1500    -0.5240   -53.0840 H             1 RES     
    9802 H            8.3290     0.9110   -52.3240 H             1 RES     
    9803 O           35.1970    12.3240   -54.3460 O             1 RES     
    9804 H           34.7460    11.4620   -54.5760 H             1 RES     
    9805 H           34.7210    13.0800   -54.7950 H             1 RES     
    9806 O            0.3640    15.2730   -58.7440 O             1 RES     
    9807 H            0.2600    16.2050   -59.0900 H             1 RES     
    9808 H           -0.3340    14.6850   -59.1520 H             1 RES     
    9809 O           -4.9940    27.5720   -59.8740 O             1 RES     
    9810 H           -5.6470    28.1150   -59.3460 H             1 RES     
    9811 H           -5.4850    27.0250   -60.5520 H             1 RES     
    9812 O           20.0610    35.5970   -52.1130 O             1 RES     
    9813 H           20.9560    35.3660   -52.4920 H             1 RES     
    9814 H           19.3890    34.9140   -52.4020 H             1 RES     
    9815 O           -0.0420    13.4680   -61.3680 O             1 RES     
    9816 H            0.5760    13.2470   -60.6150 H             1 RES     
    9817 H           -0.0630    14.4580   -61.5040 H             1 RES     
    9818 O           46.5580     1.7590   -57.5250 O             1 RES     
    9819 H           47.0480     1.8100   -56.6550 H             1 RES     
    9820 H           47.2110     1.6090   -58.2670 H             1 RES     
    9821 O           43.7190     9.2360   -62.1780 O             1 RES     
    9822 H           43.0050     8.9130   -61.5580 H             1 RES     
    9823 H           44.6160     9.0950   -61.7580 H             1 RES     
    9824 O           49.1620    25.6210   -63.4400 O             1 RES     
    9825 H           49.6050    25.5720   -62.5460 H             1 RES     
    9826 H           48.8620    24.7070   -63.7150 H             1 RES     
    9827 O            7.7920     4.5180   -60.7530 O             1 RES     
    9828 H            7.0400     3.9440   -61.0750 H             1 RES     
    9829 H            8.0550     5.1590   -61.4740 H             1 RES     
    9830 O            1.7940    15.9330   -61.4020 O             1 RES     
    9831 H            0.9310    16.4210   -61.5290 H             1 RES     
    9832 H            1.9610    15.7970   -60.4260 H             1 RES     
    9833 O           35.8780    30.8350   -57.3000 O             1 RES     
    9834 H           35.1120    30.4680   -56.7730 H             1 RES     
    9835 H           35.6560    31.7590   -57.6130 H             1 RES     
    9836 O           18.8660    26.5840   -62.2550 O             1 RES     
    9837 H           19.7140    26.2110   -62.6300 H             1 RES     
    9838 H           18.1360    26.5020   -62.9350 H             1 RES     
    9839 O           37.3920    -4.3550   -61.9140 O             1 RES     
    9840 H           37.5360    -3.4280   -61.5690 H             1 RES     
    9841 H           38.2340    -4.8840   -61.8120 H             1 RES     
    9842 O           46.5060    35.8070   -50.8600 O             1 RES     
    9843 H           46.1520    35.9080   -51.7890 H             1 RES     
    9844 H           46.5170    36.6990   -50.4080 H             1 RES     
    9845 O           25.3590    36.5730   -62.4710 O             1 RES     
    9846 H           25.3150    37.1900   -63.2570 H             1 RES     
    9847 H           25.8230    37.0310   -61.7130 H             1 RES     
    9848 O           23.9440    -1.1970   -61.3550 O             1 RES     
    9849 H           24.6450    -1.8670   -61.5970 H             1 RES     
    9850 H           23.0640    -1.4840   -61.7320 H             1 RES     
    9851 O           49.1090    12.0130   -59.2640 O             1 RES     
    9852 H           48.6900    12.3900   -58.4380 H             1 RES     
    9853 H           48.3970    11.8060   -59.9350 H             1 RES     
    9854 O           -1.1880    11.7880   -59.8850 O             1 RES     
    9855 H           -1.3890    12.1800   -58.9870 H             1 RES     
    9856 H           -1.8890    11.1130   -60.1180 H             1 RES     
    9857 O           -5.5990    19.2100   -56.3100 O             1 RES     
    9858 H           -6.1130    18.3530   -56.3580 H             1 RES     
    9859 H           -4.6190    19.0120   -56.3100 H             1 RES     
    9860 O           21.6470     2.0520   -50.7440 O             1 RES     
    9861 H           20.8480     2.6510   -50.7100 H             1 RES     
    9862 H           22.4790     2.5980   -50.6370 H             1 RES     
    9863 O           28.3570    -4.8010   -55.2960 O             1 RES     
    9864 H           29.0560    -4.8610   -56.0080 H             1 RES     
    9865 H           28.5280    -3.9950   -54.7280 H             1 RES     
    9866 O           27.3530     8.5020   -54.4400 O             1 RES     
    9867 H           26.8800     8.8820   -55.2330 H             1 RES     
    9868 H           28.1630     9.0530   -54.2380 H             1 RES     
    9869 O           17.2350    -0.6250   -57.9070 O             1 RES     
    9870 H           17.9540    -1.3120   -57.9990 H             1 RES     
    9871 H           16.6630    -0.8440   -57.1160 H             1 RES     
    9872 O           -1.7020    34.4940   -63.8300 O             1 RES     
    9873 H           -1.5180    35.4580   -64.0170 H             1 RES     
    9874 H           -2.4460    34.4190   -63.1640 H             1 RES     
    9875 O           -1.1670    30.5330   -62.6720 O             1 RES     
    9876 H           -0.8400    29.7320   -63.1720 H             1 RES     
    9877 H           -2.1660    30.5110   -62.6230 H             1 RES     
    9878 O           15.6130    15.0460   -55.8450 O             1 RES     
    9879 H           15.5490    16.0380   -55.7430 H             1 RES     
    9880 H           14.6970    14.6460   -55.8000 H             1 RES     
    9881 O           19.3310     7.8770   -61.7340 O             1 RES     
    9882 H           20.3230     7.9630   -61.8260 H             1 RES     
    9883 H           18.8990     8.7530   -61.9510 H             1 RES     
    9884 O            6.4210    24.2910   -61.0930 O             1 RES     
    9885 H            6.8830    23.4060   -61.0690 H             1 RES     
    9886 H            7.0830    25.0180   -60.9090 H             1 RES     
    9887 O           26.9420    13.2450   -54.0600 O             1 RES     
    9888 H           27.5270    14.0540   -54.0190 H             1 RES     
    9889 H           27.5100    12.4230   -54.0830 H             1 RES     
    9890 O           16.6110    -4.5020   -55.7840 O             1 RES     
    9891 H           16.7000    -5.4760   -55.9880 H             1 RES     
    9892 H           17.5090    -4.1250   -55.5560 H             1 RES     
    9893 O           25.3710    -0.2010   -53.0820 O             1 RES     
    9894 H           25.7540    -1.0120   -52.6420 H             1 RES     
    9895 H           24.6100    -0.4690   -53.6730 H             1 RES     
    9896 O           51.0110    12.7760   -58.4630 O             1 RES     
    9897 H           51.2320    13.7500   -58.4970 H             1 RES     
    9898 H           51.4010    12.3170   -59.2620 H             1 RES     
    9899 O           46.6930    31.0290   -58.8880 O             1 RES     
    9900 H           46.7960    31.8370   -58.3090 H             1 RES     
    9901 H           47.1630    30.2540   -58.4660 H             1 RES     
    9902 O           21.6850     9.2960   -58.1190 O             1 RES     
    9903 H           22.5240     8.8360   -57.8310 H             1 RES     
    9904 H           20.9370     8.6330   -58.1570 H             1 RES     
    9905 O           36.3220    28.7420   -56.1430 O             1 RES     
    9906 H           36.4300    29.1400   -55.2320 H             1 RES     
    9907 H           37.2030    28.7470   -56.6160 H             1 RES     
    9908 O           45.4250    17.0240   -59.5200 O             1 RES     
    9909 H           45.9630    16.2830   -59.1210 H             1 RES     
    9910 H           46.0360    17.6770   -59.9680 H             1 RES     
    9911 O           -2.7220    22.6760   -55.5050 O             1 RES     
    9912 H           -1.8860    23.1280   -55.1970 H             1 RES     
    9913 H           -2.4930    21.9770   -56.1840 H             1 RES     
    9914 O           21.7220    15.8640   -58.3720 O             1 RES     
    9915 H           21.9420    15.1280   -57.7330 H             1 RES     
    9916 H           22.4090    15.8920   -59.0980 H             1 RES     
    9917 O            7.2440    38.6440   -52.3920 O             1 RES     
    9918 H            7.0000    37.8170   -51.8880 H             1 RES     
    9919 H            7.8970    39.1820   -51.8570 H             1 RES     
    9920 O           34.8910    -5.7460   -63.6820 O             1 RES     
    9921 H           34.0350    -6.0980   -64.0580 H             1 RES     
    9922 H           34.7950    -4.7700   -63.4890 H             1 RES     
    9923 O           19.0380    -0.4640   -55.4090 O             1 RES     
    9924 H           18.3200    -1.1000   -55.6910 H             1 RES     
    9925 H           19.3510    -0.6990   -54.4890 H             1 RES     
    9926 O           40.5340    22.7920   -59.4280 O             1 RES     
    9927 H           39.9750    22.5630   -58.6310 H             1 RES     
    9928 H           41.3530    23.2820   -59.1310 H             1 RES     
    9929 O           30.4520    37.2200   -56.9340 O             1 RES     
    9930 H           30.8680    36.4090   -56.5250 H             1 RES     
    9931 H           29.6120    37.4490   -56.4420 H             1 RES     
    9932 O           29.0420    -1.7990   -54.2650 O             1 RES     
    9933 H           28.1990    -1.7350   -53.7340 H             1 RES     
    9934 H           29.7430    -2.2650   -53.7250 H             1 RES     
    9935 O           -5.1480    22.3070   -58.8540 O             1 RES     
    9936 H           -6.1120    22.0820   -58.7160 H             1 RES     
    9937 H           -4.9420    23.1790   -58.4100 H             1 RES     
    9938 O           -3.0740    20.6920   -58.0020 O             1 RES     
    9939 H           -3.4760    19.7770   -58.0270 H             1 RES     
    9940 H           -2.1560    20.6650   -58.3980 H             1 RES     
    9941 O           20.7910    20.6630   -60.4680 O             1 RES     
    9942 H           21.7810    20.7620   -60.3810 H             1 RES     
    9943 H           20.5540    19.6920   -60.5040 H             1 RES     
    9944 O           21.0870    -2.8250   -53.0500 O             1 RES     
    9945 H           20.6690    -2.3240   -53.8070 H             1 RES     
    9946 H           20.8280    -3.7900   -53.1050 H             1 RES     
    9947 O           37.0930    -4.1850   -58.9560 O             1 RES     
    9948 H           36.1360    -3.8990   -58.9120 H             1 RES     
    9949 H           37.1410    -5.1820   -59.0300 H             1 RES     
    9950 O           28.7780    14.7290   -59.6180 O             1 RES     
    9951 H           28.6160    15.6500   -59.2670 H             1 RES     
    9952 H           29.2940    14.2000   -58.9430 H             1 RES     
    9953 O           11.5310    24.5780   -52.2410 O             1 RES     
    9954 H           11.0220    25.0010   -51.4920 H             1 RES     
    9955 H           11.7010    23.6160   -52.0270 H             1 RES     
    9956 O           27.4200    23.4500   -60.0050 O             1 RES     
    9957 H           28.3470    23.3920   -59.6350 H             1 RES     
    9958 H           26.7800    23.6740   -59.2700 H             1 RES     
    9959 O           28.2670    38.8110   -62.4570 O             1 RES     
    9960 H           27.3860    38.5450   -62.0680 H             1 RES     
    9961 H           28.4150    39.7890   -62.3110 H             1 RES     
    9962 O           42.9550    37.0280   -60.5370 O             1 RES     
    9963 H           43.1260    37.4550   -59.6500 H             1 RES     
    9964 H           42.8170    36.0450   -60.4140 H             1 RES     
    9965 O           43.4040     6.5930   -62.9190 O             1 RES     
    9966 H           43.3090     6.7680   -61.9390 H             1 RES     
    9967 H           42.6220     6.0600   -63.2410 H             1 RES     
    9968 O           22.3190    -7.7070   -56.1530 O             1 RES     
    9969 H           21.8280    -6.9350   -55.7500 H             1 RES     
    9970 H           23.2780    -7.4580   -56.2890 H             1 RES     
    9971 O           40.4530    21.3370   -56.2290 O             1 RES     
    9972 H           40.9550    21.3310   -57.0930 H             1 RES     
    9973 H           39.4740    21.2460   -56.4100 H             1 RES     
    9974 O           37.8780    31.1630   -55.5350 O             1 RES     
    9975 H           37.9340    31.5780   -56.4430 H             1 RES     
    9976 H           38.4460    30.3400   -55.5090 H             1 RES     
    9977 O           13.1790    24.8650   -55.8240 O             1 RES     
    9978 H           13.6860    25.0770   -54.9890 H             1 RES     
    9979 H           12.6710    24.0130   -55.6990 H             1 RES     
    9980 O           27.9840    19.3750   -58.9850 O             1 RES     
    9981 H           28.4770    19.0700   -58.1710 H             1 RES     
    9982 H           27.7780    18.5860   -59.5660 H             1 RES     
    9983 O            3.6510    22.8410   -55.8120 O             1 RES     
    9984 H            4.5860    23.1910   -55.8540 H             1 RES     
    9985 H            3.6700    21.8570   -55.6330 H             1 RES     
    9986 O           15.6950    23.0250   -58.0810 O             1 RES     
    9987 H           16.1410    22.1750   -58.3620 H             1 RES     
    9988 H           15.7480    23.6900   -58.8260 H             1 RES     
    9989 O           36.0880    24.8930   -51.7070 O             1 RES     
    9990 H           36.7050    25.6770   -51.6600 H             1 RES     
    9991 H           35.1730    25.1700   -51.4110 H             1 RES     
    9992 O           -0.6400    28.1220   -53.1920 O             1 RES     
    9993 H            0.0130    28.4510   -52.5110 H             1 RES     
    9994 H           -1.0210    27.2460   -52.8940 H             1 RES     
    9995 O           22.3510    23.6950   -54.2060 O             1 RES     
    9996 H           21.3840    23.4480   -54.2670 H             1 RES     
    9997 H           22.8990    23.0260   -54.7080 H             1 RES     
    9998 O           18.7430    22.5390   -56.3510 O             1 RES     
    9999 H           18.5240    23.3200   -55.7650 H             1 RES     
   10000 H           17.9440    22.3030   -56.9040 H             1 RES     
   10001 O           16.4520    37.6640   -55.0780 O             1 RES     
   10002 H           15.5640    38.0570   -54.8390 H             1 RES     
   10003 H           16.9870    38.3350   -55.5900 H             1 RES     
   10004 O            0.5990    22.2250   -55.0550 O             1 RES     
   10005 H            0.2800    23.0190   -55.5700 H             1 RES     
   10006 H           -0.0270    22.0440   -54.2960 H             1 RES     
   10007 O           50.6180    17.5560   -50.5730 O             1 RES     
   10008 H           49.6330    17.5740   -50.4080 H             1 RES     
   10009 H           50.8240    18.0510   -51.4180 H             1 RES     
   10010 O            2.7750    38.0000   -60.6770 O             1 RES     
   10011 H            3.7600    38.1660   -60.7200 H             1 RES     
   10012 H            2.6050    37.0170   -60.6110 H             1 RES     
   10013 O            9.4800    35.3440   -56.5010 O             1 RES     
   10014 H            9.7160    34.5810   -55.9000 H             1 RES     
   10015 H            8.8000    35.9240   -56.0530 H             1 RES     
   10016 O           41.6330    27.1910   -52.4430 O             1 RES     
   10017 H           42.3670    26.5530   -52.2140 H             1 RES     
   10018 H           41.0400    26.7840   -53.1380 H             1 RES     
   10019 O           24.7800    19.4750   -54.5670 O             1 RES     
   10020 H           25.4910    19.0290   -54.0250 H             1 RES     
   10021 H           23.8900    19.0800   -54.3410 H             1 RES     
   10022 O           36.4020    10.2040   -56.6450 O             1 RES     
   10023 H           37.2210     9.6380   -56.5530 H             1 RES     
   10024 H           35.5880     9.6270   -56.5700 H             1 RES     
   10025 O           35.2170     9.4630   -63.5100 O             1 RES     
   10026 H           34.4260     9.7840   -62.9910 H             1 RES     
   10027 H           34.9450     8.7000   -64.0970 H             1 RES     
   10028 O           33.2610    40.2910   -53.0420 O             1 RES     
   10029 H           32.8730    39.3920   -53.2410 H             1 RES     
   10030 H           34.2460    40.2050   -52.8970 H             1 RES     
   10031 O           25.7040    10.1470   -57.1060 O             1 RES     
   10032 H           26.6580     9.8870   -57.2490 H             1 RES     
   10033 H           25.1460     9.3230   -57.0030 H             1 RES     
   10034 O            5.7600    16.5040   -55.7070 O             1 RES     
   10035 H            4.9620    16.0940   -55.2670 H             1 RES     
   10036 H            5.4720    17.0080   -56.5210 H             1 RES     
   10037 O           31.7570    33.5560   -63.1880 O             1 RES     
   10038 H           31.1310    32.9450   -62.7050 H             1 RES     
   10039 H           32.0370    33.1330   -64.0500 H             1 RES     
   10040 O           35.1850    31.9680   -52.5890 O             1 RES     
   10041 H           34.8360    31.7270   -51.6840 H             1 RES     
   10042 H           34.4970    31.7510   -53.2810 H             1 RES     
   10043 O           -5.1940     2.4520   -58.1450 O             1 RES     
   10044 H           -4.4340     2.3730   -58.7880 H             1 RES     
   10045 H           -4.9280     3.0440   -57.3840 H             1 RES     
   10046 O           35.3920     3.2200   -53.9450 O             1 RES     
   10047 H           36.1810     3.8330   -53.9840 H             1 RES     
   10048 H           34.5520     3.7590   -53.8830 H             1 RES     
   10049 O           10.9340     9.4710   -50.4080 O             1 RES     
   10050 H           11.2670     9.7170   -51.3170 H             1 RES     
   10051 H           10.0590     8.9920   -50.4920 H             1 RES     
   10052 O           45.4730    24.4980   -63.8730 O             1 RES     
   10053 H           44.6580    25.0310   -64.0970 H             1 RES     
   10054 H           45.2670    23.8730   -63.1200 H             1 RES     
   10055 O           -5.4330     0.0200   -57.2130 O             1 RES     
   10056 H           -5.3850     0.8450   -56.6520 H             1 RES     
   10057 H           -5.5190     0.2760   -58.1770 H             1 RES     
   10058 O           29.4980     8.8890   -61.2060 O             1 RES     
   10059 H           28.6440     8.7160   -61.6950 H             1 RES     
   10060 H           30.1350     8.1360   -61.3690 H             1 RES     
   10061 O           37.2810     9.6130   -61.7600 O             1 RES     
   10062 H           38.1060     9.9320   -62.2260 H             1 RES     
   10063 H           37.5390     9.0640   -60.9640 H             1 RES     
   10064 O            3.4380    -2.4950   -55.8650 O             1 RES     
   10065 H            3.0580    -3.2220   -55.2950 H             1 RES     
   10066 H            4.2030    -2.8550   -56.4010 H             1 RES     
   10067 O           30.9960    12.8250   -57.1160 O             1 RES     
   10068 H           30.6600    11.8890   -57.0140 H             1 RES     
   10069 H           30.2250    13.4610   -57.0910 H             1 RES     
   10070 O            7.0600    27.2890   -56.7290 O             1 RES     
   10071 H            7.4260    27.7750   -57.5210 H             1 RES     
   10072 H            7.1850    26.3050   -56.8530 H             1 RES     
   10073 O           -5.2610    32.1330   -60.6770 O             1 RES     
   10074 H           -6.1090    32.6310   -60.4980 H             1 RES     
   10075 H           -4.9390    32.3440   -61.6000 H             1 RES     
   10076 O            8.6710     8.1400   -64.0870 O             1 RES     
   10077 H            8.0430     7.3640   -64.0790 H             1 RES     
   10078 H            9.6140     7.8070   -64.0970 H             1 RES     
   10079 O           -1.9180     6.3420   -62.0890 O             1 RES     
   10080 H           -0.9810     6.0590   -61.8880 H             1 RES     
   10081 H           -2.0760     7.2580   -61.7200 H             1 RES     
   10082 O           42.5660    -2.7850   -63.1130 O             1 RES     
   10083 H           42.3940    -2.8000   -64.0980 H             1 RES     
   10084 H           41.8310    -2.2850   -62.6540 H             1 RES     
   10085 O           28.3450    -1.4370   -56.3200 O             1 RES     
   10086 H           27.4050    -1.1670   -56.1110 H             1 RES     
   10087 H           28.3980    -2.4330   -56.3930 H             1 RES     
   10088 O           41.9930    20.5180   -60.4190 O             1 RES     
   10089 H           42.4580    21.1130   -61.0730 H             1 RES     
   10090 H           41.0080    20.6890   -60.4520 H             1 RES     
   10091 O           -5.0760    -0.7910   -55.1950 O             1 RES     
   10092 H           -4.2200    -1.2420   -54.9440 H             1 RES     
   10093 H           -5.4070    -0.2480   -54.4230 H             1 RES     
   10094 O           18.9190    20.2170   -56.7100 O             1 RES     
   10095 H           19.0040    19.2220   -56.7210 H             1 RES     
   10096 H           19.8150    20.6280   -56.5420 H             1 RES     
   10097 O           49.1890     2.1680   -61.8670 O             1 RES     
   10098 H           49.8820     1.6530   -61.3630 H             1 RES     
   10099 H           48.6500     1.5410   -62.4290 H             1 RES     
   10100 O           17.1220     1.7890   -57.6490 O             1 RES     
   10101 H           16.9190     1.3750   -56.7620 H             1 RES     
   10102 H           18.0990     1.7020   -57.8420 H             1 RES     
   10103 O           40.9150    15.5430   -53.0260 O             1 RES     
   10104 H           41.1430    15.6260   -53.9960 H             1 RES     
   10105 H           41.4060    16.2440   -52.5070 H             1 RES     
   10106 O           36.8960    -2.3260   -52.1430 O             1 RES     
   10107 H           36.3940    -3.1840   -52.0370 H             1 RES     
   10108 H           36.9680    -1.8700   -51.2560 H             1 RES     
   10109 O           49.1230    32.5400   -55.5420 O             1 RES     
   10110 H           50.0460    32.5780   -55.9250 H             1 RES     
   10111 H           48.6120    33.3530   -55.8200 H             1 RES     
   10112 O            5.0290    27.1610   -64.0810 O             1 RES     
   10113 H            5.4710    28.0570   -64.0980 H             1 RES     
   10114 H            4.0360    27.2780   -64.0930 H             1 RES     
   10115 O            9.9890    13.2640   -64.0290 O             1 RES     
   10116 H            9.2490    12.7480   -63.5990 H             1 RES     
   10117 H           10.8630    12.8210   -63.8320 H             1 RES     
   10118 O           31.5740     3.4050   -63.6840 O             1 RES     
   10119 H           32.3700     3.8480   -64.0950 H             1 RES     
   10120 H           31.8770     2.7230   -63.0190 H             1 RES     
   10121 O           26.9630    32.0590   -51.9660 O             1 RES     
   10122 H           26.8900    32.7640   -51.2610 H             1 RES     
   10123 H           27.9260    31.8360   -52.1170 H             1 RES     
   10124 O           39.7050    20.3880   -54.3900 O             1 RES     
   10125 H           38.7410    20.6470   -54.3630 H             1 RES     
   10126 H           39.8220    19.5980   -54.9940 H             1 RES     
   10127 O           40.5930    11.5290   -63.9500 O             1 RES     
   10128 H           39.8870    12.1390   -63.5900 H             1 RES     
   10129 H           41.4370    12.0450   -64.0960 H             1 RES     
   10130 O           46.6860    19.6220   -61.0690 O             1 RES     
   10131 H           46.2360    20.3250   -61.6190 H             1 RES     
   10132 H           46.5570    19.8250   -60.0980 H             1 RES     
   10133 O           37.6140    28.2320   -50.5580 O             1 RES     
   10134 H           38.5020    28.6810   -50.6560 H             1 RES     
   10135 H           36.9060    28.9220   -50.4100 H             1 RES     
   10136 O           51.3220    38.1450   -55.6250 O             1 RES     
   10137 H           50.6800    38.5860   -56.2520 H             1 RES     
   10138 H           51.4960    38.7490   -54.8470 H             1 RES     
   10139 O           45.6040    21.9290   -64.0970 O             1 RES     
   10140 H           45.2160    21.6640   -63.2150 H             1 RES     
   10141 H           46.5880    21.7470   -64.0970 H             1 RES     
   10142 O           24.5270    17.6830   -58.7040 O             1 RES     
   10143 H           24.5710    17.0350   -57.9440 H             1 RES     
   10144 H           25.4420    18.0420   -58.8890 H             1 RES     
   10145 O           -1.5160    -2.6970   -56.3060 O             1 RES     
   10146 H           -0.6880    -2.9840   -55.8240 H             1 RES     
   10147 H           -2.2800    -2.6580   -55.6620 H             1 RES     
   10148 O           12.9950    11.1500   -63.3430 O             1 RES     
   10149 H           13.8940    10.7170   -63.2950 H             1 RES     
   10150 H           12.3230    10.5800   -62.8700 H             1 RES     
   10151 O            2.0080    18.3240   -61.2850 O             1 RES     
   10152 H            2.6350    19.0690   -61.5090 H             1 RES     
   10153 H            1.3020    18.6590   -60.6610 H             1 RES     
   10154 O           25.0490    26.0730   -61.2680 O             1 RES     
   10155 H           24.7280    26.9270   -60.8590 H             1 RES     
   10156 H           26.0400    26.1170   -61.3960 H             1 RES     
   10157 O           48.6120     4.3830   -52.6360 O             1 RES     
   10158 H           48.1280     5.0230   -52.0410 H             1 RES     
   10159 H           49.3100     4.8750   -53.1580 H             1 RES     
   10160 O           30.8850    14.4090   -61.7910 O             1 RES     
   10161 H           31.1420    15.3420   -62.0400 H             1 RES     
   10162 H           29.8880    14.3270   -61.7860 H             1 RES     
   10163 O           17.1200    -7.0740   -53.6410 O             1 RES     
   10164 H           18.0130    -7.3870   -53.3190 H             1 RES     
   10165 H           17.0700    -7.1740   -54.6350 H             1 RES     
   10166 O           37.3290    18.6160   -54.7450 O             1 RES     
   10167 H           37.5870    19.1810   -55.5280 H             1 RES     
   10168 H           38.0970    18.5590   -54.1070 H             1 RES     
   10169 O           42.0610    21.1140   -63.5330 O             1 RES     
   10170 H           42.7010    21.6320   -64.0980 H             1 RES     
   10171 H           41.2990    20.7950   -64.0980 H             1 RES     
   10172 O           -3.9420     0.9820   -62.8880 O             1 RES     
   10173 H           -4.0820     1.6600   -62.1670 H             1 RES     
   10174 H           -2.9940     1.0220   -63.2040 H             1 RES     
   10175 O           -2.8780    24.8070   -54.1770 O             1 RES     
   10176 H           -2.3060    25.6070   -54.0020 H             1 RES     
   10177 H           -3.8340    25.0900   -54.2590 H             1 RES     
   10178 O           18.9680    33.7930   -56.5570 O             1 RES     
   10179 H           18.2790    33.4620   -57.2010 H             1 RES     
   10180 H           18.5470    34.4400   -55.9210 H             1 RES     
   10181 O           31.3470    32.1130   -58.6230 O             1 RES     
   10182 H           31.6910    31.1750   -58.5980 H             1 RES     
   10183 H           30.3470    32.1010   -58.6570 H             1 RES     
   10184 O           -3.0670    31.8730   -64.0980 O             1 RES     
   10185 H           -2.1980    32.3540   -63.9900 H             1 RES     
   10186 H           -3.8200    32.5290   -64.0520 H             1 RES     
   10187 O            5.2610    21.9190   -50.8710 O             1 RES     
   10188 H            5.0500    22.7010   -51.4570 H             1 RES     
   10189 H            6.2390    21.7170   -50.9220 H             1 RES     
   10190 O            7.5440     6.5160   -50.4080 O             1 RES     
   10191 H            6.6000     6.5290   -50.7380 H             1 RES     
   10192 H            7.9750     7.3990   -50.5940 H             1 RES     
   10193 O           38.0050    30.0130   -63.9060 O             1 RES     
   10194 H           38.8540    29.4870   -63.8660 H             1 RES     
   10195 H           37.2400    29.3980   -64.0980 H             1 RES     
   10196 O           22.4940    17.7560   -52.4780 O             1 RES     
   10197 H           22.1760    17.5760   -51.5480 H             1 RES     
   10198 H           23.4550    18.0330   -52.4550 H             1 RES     
   10199 O            3.1360    -3.0490   -63.5230 O             1 RES     
   10200 H            2.2370    -3.4190   -63.7560 H             1 RES     
   10201 H            3.4600    -3.4670   -62.6740 H             1 RES     
   10202 O            1.2290    -5.6640   -55.3130 O             1 RES     
   10203 H            1.5990    -6.5920   -55.3070 H             1 RES     
   10204 H            1.5560    -5.1680   -54.5090 H             1 RES     
   10205 O           33.5790    14.8760   -63.5640 O             1 RES     
   10206 H           33.2260    14.9630   -62.6330 H             1 RES     
   10207 H           32.9740    14.2850   -64.0970 H             1 RES     
   10208 O            4.4280     9.4450   -52.0420 O             1 RES     
   10209 H            4.5710    10.2440   -51.4600 H             1 RES     
   10210 H            3.5520     9.0180   -51.8140 H             1 RES     
   10211 O            2.8840    18.6100   -57.3920 O             1 RES     
   10212 H            2.7920    17.6580   -57.1010 H             1 RES     
   10213 H            2.0200    19.0900   -57.2390 H             1 RES     
   10214 O           12.4990    34.2410   -50.4090 O             1 RES     
   10215 H           13.2890    34.8250   -50.5920 H             1 RES     
   10216 H           12.7680    33.2810   -50.4860 H             1 RES     
   10217 O           17.4860    21.2240   -63.9990 O             1 RES     
   10218 H           16.5160    21.1490   -63.7670 H             1 RES     
   10219 H           17.7320    22.1880   -64.0980 H             1 RES     
   10220 O           29.9850     3.3820   -60.3210 O             1 RES     
   10221 H           30.5410     3.3900   -61.1520 H             1 RES     
   10222 H           29.4000     4.1930   -60.3040 H             1 RES     
   10223 O           47.3980    13.7210   -61.5440 O             1 RES     
   10224 H           46.9150    13.0670   -60.9620 H             1 RES     
   10225 H           46.7380    14.3420   -61.9670 H             1 RES     
   10226 O            1.3770    21.6220   -57.4160 O             1 RES     
   10227 H            1.8170    21.1990   -56.6250 H             1 RES     
   10228 H            1.9490    22.3690   -57.7570 H             1 RES     
   10229 O           30.7490    21.4840   -52.3430 O             1 RES     
   10230 H           31.6590    21.6440   -52.7240 H             1 RES     
   10231 H           30.2640    20.8140   -52.9040 H             1 RES     
   10232 O            3.7850    27.1490   -57.5140 O             1 RES     
   10233 H            4.4150    26.7410   -56.8540 H             1 RES     
   10234 H            3.5430    28.0730   -57.2170 H             1 RES     
   10235 O           37.1620    12.3760   -57.9320 O             1 RES     
   10236 H           36.2090    12.1360   -57.7500 H             1 RES     
   10237 H           37.7640    11.7270   -57.4670 H             1 RES     
   10238 O           20.7490    36.5250   -57.4440 O             1 RES     
   10239 H           20.5140    36.6780   -56.4850 H             1 RES     
   10240 H           21.4870    37.1470   -57.7100 H             1 RES     
   10241 O           -6.0260    27.8640   -51.1230 O             1 RES     
   10242 H           -5.5700    27.1350   -50.6130 H             1 RES     
   10243 H           -5.4980    28.7100   -51.0410 H             1 RES     
   10244 O           38.9120    27.8960   -55.4250 O             1 RES     
   10245 H           39.7440    27.3950   -55.1880 H             1 RES     
   10246 H           38.5420    28.3360   -54.6060 H             1 RES     
   10247 O           30.3030    37.9840   -51.0500 O             1 RES     
   10248 H           30.6820    38.2940   -51.9210 H             1 RES     
   10249 H           29.4480    37.4920   -51.2150 H             1 RES     
   10250 O            6.1140     2.7510   -59.1770 O             1 RES     
   10251 H            7.0440     2.8390   -58.8220 H             1 RES     
   10252 H            5.7280     3.6600   -59.3320 H             1 RES     
   10253 O           27.5800    30.3920   -54.8490 O             1 RES     
   10254 H           27.0680    29.5350   -54.8940 H             1 RES     
   10255 H           26.9430    31.1630   -54.8530 H             1 RES     
   10256 O           36.6320     9.0790   -54.1970 O             1 RES     
   10257 H           36.4100    10.0460   -54.3160 H             1 RES     
   10258 H           35.9780     8.5210   -54.7090 H             1 RES     
   10259 O           18.7240    24.4620   -63.5250 O             1 RES     
   10260 H           17.9260    24.6460   -64.0970 H             1 RES     
   10261 H           19.5450    24.4310   -64.0970 H             1 RES     
   10262 O           39.8420     3.8840   -59.1950 O             1 RES     
   10263 H           39.2380     3.0900   -59.2380 H             1 RES     
   10264 H           40.7930     3.5860   -59.2870 H             1 RES     
   10265 O           -4.6500    35.3310   -51.3790 O             1 RES     
   10266 H           -4.1410    36.1550   -51.1330 H             1 RES     
   10267 H           -5.6280    35.4890   -51.2390 H             1 RES     
   10268 O           44.5020    -4.1770   -60.4040 O             1 RES     
   10269 H           44.4010    -3.2250   -60.6930 H             1 RES     
   10270 H           45.4730    -4.3910   -60.2970 H             1 RES     
   10271 O            2.5040    32.6030   -57.2930 O             1 RES     
   10272 H            1.7010    32.2230   -57.7500 H             1 RES     
   10273 H            3.1410    32.9580   -57.9770 H             1 RES     
   10274 O            9.2310    32.1330   -57.7820 O             1 RES     
   10275 H            9.0240    33.1070   -57.7000 H             1 RES     
   10276 H            8.4190    31.5980   -57.5510 H             1 RES     
   10277 O           35.9330    19.6040   -58.7540 O             1 RES     
   10278 H           35.5130    20.4350   -59.1200 H             1 RES     
   10279 H           36.5480    19.2120   -59.4380 H             1 RES     
   10280 O           10.5990    20.8420   -55.2760 O             1 RES     
   10281 H           11.4840    21.2770   -55.4380 H             1 RES     
   10282 H           10.7080    19.8480   -55.2850 H             1 RES     
   10283 O           51.4300    26.9850   -63.5350 O             1 RES     
   10284 H           51.4120    27.8110   -64.0980 H             1 RES     
   10285 H           51.2000    26.1920   -64.0980 H             1 RES     
   10286 O           -2.8720    19.6260   -60.2360 O             1 RES     
   10287 H           -1.9390    19.5690   -60.5890 H             1 RES     
   10288 H           -3.3940    18.8300   -60.5430 H             1 RES     
   10289 O           43.3980    15.5490   -58.6020 O             1 RES     
   10290 H           44.0290    15.2530   -59.3180 H             1 RES     
   10291 H           43.4380    14.9080   -57.8350 H             1 RES     
   10292 O           18.4560    36.0780   -63.7300 O             1 RES     
   10293 H           18.8600    36.4330   -62.8880 H             1 RES     
   10294 H           18.9130    35.2260   -63.9860 H             1 RES     
   10295 O           48.8430     9.4440   -61.6100 O             1 RES     
   10296 H           48.8790    10.4430   -61.5930 H             1 RES     
   10297 H           47.9560     9.1470   -61.9630 H             1 RES     
   10298 O           22.1950    20.4480   -54.6780 O             1 RES     
   10299 H           21.6810    20.8980   -55.4070 H             1 RES     
   10300 H           21.5630    19.9540   -54.0800 H             1 RES     
   10301 O            5.2930    28.9180   -58.2810 O             1 RES     
   10302 H            5.5800    28.0530   -58.6900 H             1 RES     
   10303 H            5.5680    28.9410   -57.3200 H             1 RES     
   10304 O           37.8560    37.1820   -57.9160 O             1 RES     
   10305 H           36.9090    37.1370   -58.2310 H             1 RES     
   10306 H           38.2520    38.0640   -58.1720 H             1 RES     
   10307 O           41.7340    -4.3760   -54.4530 O             1 RES     
   10308 H           42.0590    -3.5520   -54.9160 H             1 RES     
   10309 H           41.0140    -4.8040   -54.9990 H             1 RES     
   10310 O           44.5190     7.8570   -59.9410 O             1 RES     
   10311 H           44.5830     6.8810   -60.1450 H             1 RES     
   10312 H           43.5990     8.0710   -59.6130 H             1 RES     
   10313 O           43.4250    18.3420   -56.1540 O             1 RES     
   10314 H           42.4260    18.3760   -56.1320 H             1 RES     
   10315 H           43.7400    17.4950   -55.7250 H             1 RES     
   10316 O           11.0050    24.5930   -63.7110 O             1 RES     
   10317 H           11.8910    24.8520   -64.0950 H             1 RES     
   10318 H           10.3340    25.3080   -63.9080 H             1 RES     
   10319 O           20.8030    10.3670   -54.7590 O             1 RES     
   10320 H           20.4180    10.9140   -55.5020 H             1 RES     
   10321 H           20.8940    10.9330   -53.9390 H             1 RES     
   10322 O           40.9420    35.3130   -59.5260 O             1 RES     
   10323 H           40.2150    35.9960   -59.5800 H             1 RES     
   10324 H           40.7790    34.5980   -60.2060 H             1 RES     
   10325 O           -5.1610    12.2840   -61.0440 O             1 RES     
   10326 H           -5.0740    11.7730   -61.8980 H             1 RES     
   10327 H           -6.1140    12.5610   -60.9160 H             1 RES     
   10328 O           27.6910    11.5990   -56.1150 O             1 RES     
   10329 H           27.8980    10.8080   -55.5400 H             1 RES     
   10330 H           26.7150    11.8100   -56.0540 H             1 RES     
   10331 O           51.4980    17.6450   -61.6470 O             1 RES     
   10332 H           51.2160    17.1280   -62.4540 H             1 RES     
   10333 H           51.0250    18.5270   -61.6330 H             1 RES     
   10334 O           16.7650    -7.7080   -59.0700 O             1 RES     
   10335 H           16.5530    -6.8170   -58.6690 H             1 RES     
   10336 H           17.7040    -7.7050   -59.4120 H             1 RES     
   10337 O            4.3650    -3.7100   -60.3110 O             1 RES     
   10338 H            3.5190    -3.4360   -59.8550 H             1 RES     
   10339 H            4.9930    -2.9320   -60.3460 H             1 RES     
   10340 O            3.4100    24.7310   -54.6860 O             1 RES     
   10341 H            2.7060    25.3960   -54.4390 H             1 RES     
   10342 H            4.3130    25.1520   -54.5980 H             1 RES     
   10343 O           -1.9700    33.6230   -51.9960 O             1 RES     
   10344 H           -1.3700    34.4060   -52.1540 H             1 RES     
   10345 H           -2.8120    33.9320   -51.5520 H             1 RES     
   10346 O           44.2570    12.3760   -61.2230 O             1 RES     
   10347 H           44.7480    13.2390   -61.3400 H             1 RES     
   10348 H           43.3110    12.5650   -60.9550 H             1 RES     
   10349 O           52.0490    38.0720   -50.4080 O             1 RES     
   10350 H           51.9950    37.1040   -50.6510 H             1 RES     
   10351 H           51.1340    38.4750   -50.4330 H             1 RES     
   10352 O           36.0180    14.5740   -59.5260 O             1 RES     
   10353 H           35.7570    13.6340   -59.7430 H             1 RES     
   10354 H           36.9130    14.5780   -59.0790 H             1 RES     
   10355 O           -1.2530    36.3130   -50.4500 O             1 RES     
   10356 H           -1.9610    35.6080   -50.4090 H             1 RES     
   10357 H           -0.3510    35.8810   -50.4530 H             1 RES     
   10358 O           22.1900    12.1180   -52.0260 O             1 RES     
   10359 H           22.4180    12.2120   -52.9940 H             1 RES     
   10360 H           22.7420    11.3880   -51.6220 H             1 RES     
   10361 O           26.7800     5.1820   -56.1320 O             1 RES     
   10362 H           26.9680     4.9890   -57.0950 H             1 RES     
   10363 H           25.9290     5.7020   -56.0560 H             1 RES     
   10364 O            7.6470    20.6430   -55.5670 O             1 RES     
   10365 H            7.7690    19.6520   -55.5250 H             1 RES     
   10366 H            6.8210    20.8990   -55.0650 H             1 RES     
   10367 O           24.3380    -5.2530   -56.1440 O             1 RES     
   10368 H           24.9140    -6.0360   -55.9120 H             1 RES     
   10369 H           24.8870    -4.5620   -56.6150 H             1 RES     
   10370 O           38.1210    12.1300   -61.1980 O             1 RES     
   10371 H           37.8010    12.8340   -61.8310 H             1 RES     
   10372 H           38.9710    12.4310   -60.7660 H             1 RES     
   10373 O           20.0760    20.6170   -63.1700 O             1 RES     
   10374 H           19.2900    20.0790   -63.4720 H             1 RES     
   10375 H           19.7700    21.5300   -62.8960 H             1 RES     
   10376 O           17.7610    40.0130   -57.3890 O             1 RES     
   10377 H           17.6380    40.3570   -58.3200 H             1 RES     
   10378 H           16.9320    40.1870   -56.8570 H             1 RES     
   10379 O           12.8090    -1.0750   -63.9720 O             1 RES     
   10380 H           12.1510    -1.8180   -64.0890 H             1 RES     
   10381 H           12.3220    -0.2030   -63.9240 H             1 RES     
   10382 O            1.0450    33.4680   -53.5260 O             1 RES     
   10383 H            1.2230    32.5070   -53.7310 H             1 RES     
   10384 H            1.9040    33.9790   -53.5450 H             1 RES     
   10385 O           25.5210    26.2150   -63.5860 O             1 RES     
   10386 H           25.2770    27.0380   -64.0980 H             1 RES     
   10387 H           25.2240    25.4050   -64.0930 H             1 RES     
   10388 O           -2.9410    37.2300   -52.6380 O             1 RES     
   10389 H           -2.0520    36.8220   -52.4360 H             1 RES     
   10390 H           -2.8510    38.2250   -52.6790 H             1 RES     
   10391 O           38.1260    -3.1460   -54.8530 O             1 RES     
   10392 H           37.2760    -3.6650   -54.7630 H             1 RES     
   10393 H           38.9000    -3.7770   -54.8930 H             1 RES     
   10394 O           32.1010    22.6780   -57.4340 O             1 RES     
   10395 H           31.8050    21.7390   -57.6060 H             1 RES     
   10396 H           33.1000    22.7120   -57.4030 H             1 RES     
   10397 O           24.1540    -2.9710   -53.4170 O             1 RES     
   10398 H           23.8040    -2.4490   -54.1940 H             1 RES     
   10399 H           23.8900    -2.5190   -52.5640 H             1 RES     
   10400 O            5.9260    -2.5990   -54.2600 O             1 RES     
   10401 H            6.4010    -3.4200   -54.5740 H             1 RES     
   10402 H            5.7450    -1.9990   -55.0390 H             1 RES     
   10403 O           40.7410     8.0140   -63.2230 O             1 RES     
   10404 H           41.1940     7.8450   -64.0980 H             1 RES     
   10405 H           41.3300     7.7040   -62.4760 H             1 RES     
   10406 O           41.6740    16.0390   -61.9890 O             1 RES     
   10407 H           42.0860    15.1290   -62.0230 H             1 RES     
   10408 H           41.6610    16.3650   -61.0440 H             1 RES     
   10409 O           40.7840    22.2750   -52.5250 O             1 RES     
   10410 H           40.2910    23.0800   -52.1960 H             1 RES     
   10411 H           41.7620    22.4770   -52.5680 H             1 RES     
   10412 O           12.8810    15.0030   -64.0960 O             1 RES     
   10413 H           13.4360    14.1880   -63.9370 H             1 RES     
   10414 H           13.3010    15.7880   -63.6390 H             1 RES     
   10415 O           -4.8550    -3.2350   -61.8390 O             1 RES     
   10416 H           -5.0150    -4.2210   -61.8420 H             1 RES     
   10417 H           -5.7320    -2.7540   -61.8620 H             1 RES     
   10418 O           -6.1040    26.5390   -55.5380 O             1 RES     
   10419 H           -6.0920    25.5530   -55.3790 H             1 RES     
   10420 H           -5.1650    26.8790   -55.6000 H             1 RES     
   10421 O           38.8710    -4.3480   -64.0970 O             1 RES     
   10422 H           38.1610    -5.0460   -64.0050 H             1 RES     
   10423 H           38.4700    -3.4440   -63.9470 H             1 RES     
   10424 O           12.8130    17.4970   -52.5650 O             1 RES     
   10425 H           12.9320    17.5270   -51.5730 H             1 RES     
   10426 H           13.5610    17.9930   -53.0060 H             1 RES     
   10427 O           31.0910    22.9370   -61.0030 O             1 RES     
   10428 H           31.1460    22.3540   -61.8130 H             1 RES     
   10429 H           30.4580    23.6910   -61.1770 H             1 RES     
   10430 O           35.4720    31.9500   -61.8600 O             1 RES     
   10431 H           36.1350    31.2630   -61.5650 H             1 RES     
   10432 H           34.5970    31.7870   -61.4040 H             1 RES     
   10433 O           -2.2760     1.5780   -57.0610 O             1 RES     
   10434 H           -1.7880     2.4480   -57.0040 H             1 RES     
   10435 H           -2.6050     1.4400   -57.9950 H             1 RES     
   10436 O            7.6450    20.0370   -51.1170 O             1 RES     
   10437 H            6.9900    19.2840   -51.0620 H             1 RES     
   10438 H            8.5660    19.6920   -50.9340 H             1 RES     
   10439 O           -5.7320    20.9730   -60.5780 O             1 RES     
   10440 H           -4.9250    20.4190   -60.3750 H             1 RES     
   10441 H           -5.5640    21.5200   -61.3980 H             1 RES     
   10442 O           23.9800    40.1520   -56.4710 O             1 RES     
   10443 H           24.0610    39.2320   -56.8540 H             1 RES     
   10444 H           23.3740    40.1310   -55.6760 H             1 RES     
   10445 O           15.1410    31.8120   -54.2150 O             1 RES     
   10446 H           15.2040    30.8400   -53.9920 H             1 RES     
   10447 H           14.2460    32.1610   -53.9380 H             1 RES     
   10448 O           46.4210    26.4620   -50.4090 O             1 RES     
   10449 H           47.3220    26.7160   -50.7600 H             1 RES     
   10450 H           46.0460    25.7160   -50.9600 H             1 RES     
   10451 O           38.0560    31.0310   -59.1160 O             1 RES     
   10452 H           37.1780    31.5030   -59.1810 H             1 RES     
   10453 H           38.6570    31.3400   -59.8530 H             1 RES     
   10454 O            8.7730    24.3970   -52.8300 O             1 RES     
   10455 H            8.9680    25.2110   -52.2840 H             1 RES     
   10456 H            8.3250    23.7100   -52.2570 H             1 RES     
   10457 O           30.9660    32.7230   -50.4490 O             1 RES     
   10458 H           30.3120    33.4700   -50.5610 H             1 RES     
   10459 H           31.8940    33.0950   -50.4080 H             1 RES     
   10460 O           49.1470    24.2080   -50.9770 O             1 RES     
   10461 H           48.9240    23.4160   -50.4100 H             1 RES     
   10462 H           48.7290    25.0280   -50.5860 H             1 RES     
   10463 O           23.6220    -3.6550   -62.3690 O             1 RES     
   10464 H           23.3740    -3.5020   -63.3250 H             1 RES     
   10465 H           22.8250    -3.9890   -61.8670 H             1 RES     
   10466 O           47.0710    27.1500   -57.3720 O             1 RES     
   10467 H           46.7960    27.8460   -58.0350 H             1 RES     
   10468 H           46.5370    26.3180   -57.5200 H             1 RES     
   10469 O            3.1520    32.1000   -60.0030 O             1 RES     
   10470 H            3.4790    33.0100   -60.2560 H             1 RES     
   10471 H            3.9270    31.5300   -59.7310 H             1 RES     
   10472 O           48.8160     1.3020   -55.4150 O             1 RES     
   10473 H           49.0970     2.1260   -55.9060 H             1 RES     
   10474 H           49.6160     0.8750   -54.9940 H             1 RES     
   10475 O           20.0000    17.2680   -56.5390 O             1 RES     
   10476 H           19.2200    17.1840   -55.9190 H             1 RES     
   10477 H           19.9760    16.5250   -57.2080 H             1 RES     
   10478 O           17.2410    24.9990   -59.7730 O             1 RES     
   10479 H           18.1130    25.2290   -59.3440 H             1 RES     
   10480 H           16.8090    25.8320   -60.1200 H             1 RES     
   10481 O           -6.0530    13.0200   -54.9950 O             1 RES     
   10482 H           -6.1140    13.9610   -55.3260 H             1 RES     
   10483 H           -5.1040    12.8090   -54.7610 H             1 RES     
   10484 O           37.8090    24.4540   -61.7290 O             1 RES     
   10485 H           38.7510    24.1200   -61.7360 H             1 RES     
   10486 H           37.7220    25.1920   -61.0580 H             1 RES     
   10487 O           22.4320    -6.1250   -63.6500 O             1 RES     
   10488 H           23.1120    -5.5450   -64.0980 H             1 RES     
   10489 H           21.8120    -5.5570   -63.1100 H             1 RES     
   10490 O           35.6370    25.6910   -56.9720 O             1 RES     
   10491 H           34.6510    25.8530   -56.9480 H             1 RES     
   10492 H           36.1180    26.5670   -57.0100 H             1 RES     
   10493 O           12.9260    28.9290   -54.4010 O             1 RES     
   10494 H           13.7420    29.3840   -54.7570 H             1 RES     
   10495 H           13.1190    28.5620   -53.4910 H             1 RES     
   10496 O           33.0860     7.2780   -53.7040 O             1 RES     
   10497 H           33.0150     8.2580   -53.5210 H             1 RES     
   10498 H           33.5460     7.1340   -54.5810 H             1 RES     
   10499 O           -3.9240    30.9550   -56.6910 O             1 RES     
   10500 H           -3.5110    31.7990   -56.3530 H             1 RES     
   10501 H           -4.4850    31.1550   -57.4940 H             1 RES     
   10502 O           26.4790    19.2480   -51.3130 O             1 RES     
   10503 H           27.2880    19.6260   -51.7620 H             1 RES     
   10504 H           25.8110    19.9770   -51.1610 H             1 RES     
   10505 O           -1.9550    16.7650   -58.6080 O             1 RES     
   10506 H           -2.1870    15.8050   -58.7600 H             1 RES     
   10507 H           -2.3240    17.3200   -59.3530 H             1 RES     
   10508 O           44.6760    39.6900   -56.4540 O             1 RES     
   10509 H           45.3820    38.9910   -56.3490 H             1 RES     
   10510 H           43.9600    39.3520   -57.0650 H             1 RES     
   10511 O           39.4280    33.2710   -52.3890 O             1 RES     
   10512 H           38.8430    34.0390   -52.1290 H             1 RES     
   10513 H           40.2480    33.6160   -52.8450 H             1 RES     
   10514 O           13.0180    34.2600   -54.2630 O             1 RES     
   10515 H           12.6670    34.0210   -55.1670 H             1 RES     
   10516 H           13.6440    35.0360   -54.3420 H             1 RES     
   10517 O           19.6180     6.8490   -57.7450 O             1 RES     
   10518 H           18.9800     7.5660   -57.4660 H             1 RES     
   10519 H           19.4110     6.0070   -57.2480 H             1 RES     
   10520 O           16.9740    -7.6390   -50.8470 O             1 RES     
   10521 H           17.9260    -7.7050   -51.1440 H             1 RES     
   10522 H           16.8210    -6.7530   -50.4090 H             1 RES     
   10523 O           28.7410    34.3520   -62.5740 O             1 RES     
   10524 H           28.8320    33.8260   -61.7290 H             1 RES     
   10525 H           27.8840    34.1090   -63.0290 H             1 RES     
   10526 O           35.3040     6.0620   -55.4590 O             1 RES     
   10527 H           36.2000     5.6260   -55.3830 H             1 RES     
   10528 H           34.5870     5.3680   -55.3860 H             1 RES     
   10529 O           48.1110    -7.2050   -56.0470 O             1 RES     
   10530 H           47.9850    -6.2860   -56.4210 H             1 RES     
   10531 H           47.2530    -7.5200   -55.6400 H             1 RES     
   10532 O           -2.6420     4.7770   -59.3290 O             1 RES     
   10533 H           -3.3850     4.3060   -58.8560 H             1 RES     
   10534 H           -2.0580     4.1060   -59.7860 H             1 RES     
   10535 O           33.5580    12.8100   -62.2650 O             1 RES     
   10536 H           33.5920    11.9820   -61.7060 H             1 RES     
   10537 H           34.0880    12.6700   -63.1020 H             1 RES     
   10538 O           26.7490    16.8820   -57.5530 O             1 RES     
   10539 H           27.5950    17.2950   -57.2170 H             1 RES     
   10540 H           26.8560    15.8880   -57.5920 H             1 RES     
   10541 O           18.0050    -6.0060   -64.0970 O             1 RES     
   10542 H           18.1530    -6.5090   -63.2460 H             1 RES     
   10543 H           18.3310    -5.0670   -63.9910 H             1 RES     
   10544 O            7.3460    29.5250   -60.4660 O             1 RES     
   10545 H            7.3780    28.5830   -60.1320 H             1 RES     
   10546 H            8.1730    29.7210   -60.9930 H             1 RES     
   10547 O           32.7620     7.3940   -60.3560 O             1 RES     
   10548 H           33.1790     6.7180   -60.9630 H             1 RES     
   10549 H           31.8100     7.1420   -60.1810 H             1 RES     
   10550 O           -2.9480    -7.1390   -53.8010 O             1 RES     
   10551 H           -2.6920    -7.7080   -54.5810 H             1 RES     
   10552 H           -2.1250    -6.7540   -53.3830 H             1 RES     
   10553 O           47.8720    31.0760   -61.8760 O             1 RES     
   10554 H           48.3200    31.2700   -61.0040 H             1 RES     
   10555 H           47.1280    31.7280   -62.0210 H             1 RES     
   10556 O           43.9440    34.2060   -58.6790 O             1 RES     
   10557 H           44.7630    34.7570   -58.8330 H             1 RES     
   10558 H           43.4120    34.6010   -57.9300 H             1 RES     
   10559 O           33.4170    29.3420   -51.2410 O             1 RES     
   10560 H           32.8250    28.6550   -50.8200 H             1 RES     
   10561 H           34.3260    29.2990   -50.8260 H             1 RES     
   10562 O           43.8560    -4.4700   -62.5340 O             1 RES     
   10563 H           43.6420    -5.4440   -62.4780 H             1 RES     
   10564 H           44.8310    -4.3530   -62.7270 H             1 RES     
   10565 O           19.3330    25.5950   -52.4410 O             1 RES     
   10566 H           18.3730    25.8730   -52.4390 H             1 RES     
   10567 H           19.3920    24.5970   -52.4140 H             1 RES     
   10568 O            7.4130    16.8480   -52.4970 O             1 RES     
   10569 H            7.1160    15.8950   -52.5460 H             1 RES     
   10570 H            8.4090    16.8920   -52.5760 H             1 RES     
   10571 O           24.2770    13.9830   -57.7830 O             1 RES     
   10572 H           23.6650    13.9650   -56.9930 H             1 RES     
   10573 H           24.1650    14.8480   -58.2730 H             1 RES     
   10574 O            6.9700    14.1300   -51.1900 O             1 RES     
   10575 H            6.0580    13.7270   -51.2600 H             1 RES     
   10576 H            6.9390    14.9230   -50.5800 H             1 RES     
   10577 O           36.0460    23.0970   -53.0430 O             1 RES     
   10578 H           35.1120    23.1850   -52.7000 H             1 RES     
   10579 H           36.2970    22.1290   -53.0850 H             1 RES     
   10580 O           29.4120     6.3440   -63.9590 O             1 RES     
   10581 H           30.2420     5.8030   -64.0860 H             1 RES     
   10582 H           29.6200     7.3120   -64.0980 H             1 RES     
   10583 O           21.0070    25.9080   -56.0150 O             1 RES     
   10584 H           21.7540    25.2590   -55.8720 H             1 RES     
   10585 H           21.1710    26.4250   -56.8550 H             1 RES     
   10586 O           30.5590    33.9100   -55.0620 O             1 RES     
   10587 H           30.3620    33.1570   -54.4350 H             1 RES     
   10588 H           31.1570    33.5870   -55.7950 H             1 RES     
   10589 O            5.7660     5.3600   -62.8360 O             1 RES     
   10590 H            6.0050     6.3290   -62.8820 H             1 RES     
   10591 H            5.0220     5.1680   -63.4770 H             1 RES     
   10592 O           20.6240     1.2580   -54.5990 O             1 RES     
   10593 H           21.4580     1.4830   -54.0950 H             1 RES     
   10594 H           20.8650     0.9260   -55.5110 H             1 RES     
   10595 O           52.0450    33.8610   -63.1930 O             1 RES     
   10596 H           51.2620    33.2730   -63.3940 H             1 RES     
   10597 H           51.7230    34.7280   -62.8120 H             1 RES     
   10598 O           20.6610     6.9290   -54.3580 O             1 RES     
   10599 H           20.7970     6.0000   -54.6990 H             1 RES     
   10600 H           20.2420     6.8940   -53.4510 H             1 RES     
   10601 O           45.6380    -6.3940   -62.5770 O             1 RES     
   10602 H           45.8980    -7.3280   -62.8160 H             1 RES     
   10603 H           46.0330    -6.1530   -61.6900 H             1 RES     
   10604 O           13.5610     8.6290   -61.6350 O             1 RES     
   10605 H           14.3940     8.1050   -61.4630 H             1 RES     
   10606 H           12.7650     8.0280   -61.5570 H             1 RES     
   10607 O           16.5100    31.2290   -51.9320 O             1 RES     
   10608 H           16.0740    31.2230   -51.0330 H             1 RES     
   10609 H           16.3400    32.1060   -52.3810 H             1 RES     
   10610 O           51.0430    21.2380   -59.7830 O             1 RES     
   10611 H           50.3790    21.4600   -59.0700 H             1 RES     
   10612 H           50.6590    20.5430   -60.3910 H             1 RES     
   10613 O            0.1740    34.2890   -62.3150 O             1 RES     
   10614 H            0.4330    33.6210   -63.0120 H             1 RES     
   10615 H            0.9020    34.9680   -62.2170 H             1 RES     
   10616 O           51.4750    12.6780   -56.3140 O             1 RES     
   10617 H           52.0490    11.9390   -56.6650 H             1 RES     
   10618 H           52.0490    13.4630   -56.0780 H             1 RES     
   10619 O           -0.3960    25.3650   -57.1760 O             1 RES     
   10620 H           -1.1330    26.0170   -57.0010 H             1 RES     
   10621 H           -0.6990    24.4440   -56.9310 H             1 RES     
   10622 O           48.7740    21.8970   -51.9940 O             1 RES     
   10623 H           48.4670    22.7200   -52.4720 H             1 RES     
   10624 H           47.9970    21.4690   -51.5330 H             1 RES     
   10625 O           46.0290    31.3410   -55.3200 O             1 RES     
   10626 H           46.6520    32.1140   -55.2000 H             1 RES     
   10627 H           45.1010    31.6190   -55.0710 H             1 RES     
   10628 O            1.0170     7.3160   -62.7830 O             1 RES     
   10629 H            0.2640     7.0950   -63.4020 H             1 RES     
   10630 H            0.8190     8.1730   -62.3080 H             1 RES     
   10631 O           24.1950     1.7710   -54.8940 O             1 RES     
   10632 H           25.1430     1.5480   -55.1200 H             1 RES     
   10633 H           23.6220     0.9620   -55.0210 H             1 RES     
   10634 O            0.1680    30.5070   -54.2230 O             1 RES     
   10635 H            0.5920    30.4130   -53.3230 H             1 RES     
   10636 H            0.8800    30.5620   -54.9230 H             1 RES     
   10637 O            8.6940    39.5630   -62.9920 O             1 RES     
   10638 H            9.3350    39.2030   -62.3150 H             1 RES     
   10639 H            8.5390    38.8760   -63.7030 H             1 RES     
   10640 O           47.4360    -5.0280   -58.6830 O             1 RES     
   10641 H           46.5070    -5.3810   -58.5850 H             1 RES     
   10642 H           47.4010    -4.0590   -58.9300 H             1 RES     
   10643 O           27.3660     0.6090   -53.5310 O             1 RES     
   10644 H           26.8570     1.4570   -53.3870 H             1 RES     
   10645 H           27.2840     0.3290   -54.4870 H             1 RES     
   10646 O           12.9740     5.3870   -50.9050 O             1 RES     
   10647 H           13.4420     6.1230   -50.4180 H             1 RES     
   10648 H           12.0760     5.2320   -50.4910 H             1 RES     
   10649 O           49.4060     6.8810   -60.7070 O             1 RES     
   10650 H           50.1080     6.4380   -60.1510 H             1 RES     
   10651 H           49.3860     6.4630   -61.6150 H             1 RES     
   10652 O            7.8550    26.2890   -62.5330 O             1 RES     
   10653 H            8.8520    26.2520   -62.5840 H             1 RES     
   10654 H            7.4620    25.7900   -63.3060 H             1 RES     
   10655 O           35.0030    14.3450   -53.0170 O             1 RES     
   10656 H           34.7260    15.2630   -52.7340 H             1 RES     
   10657 H           35.9930    14.3210   -53.1550 H             1 RES     
   10658 O            3.9260     6.9380   -50.4850 O             1 RES     
   10659 H            4.6790     7.5880   -50.5790 H             1 RES     
   10660 H            4.2930     6.0110   -50.4080 H             1 RES     
   10661 O           28.3510     7.1720   -52.3550 O             1 RES     
   10662 H           29.0900     7.5850   -52.8850 H             1 RES     
   10663 H           28.2800     6.2000   -52.5820 H             1 RES     
   10664 O           -1.0280    -3.7610   -63.4450 O             1 RES     
   10665 H           -1.5110    -4.6010   -63.2020 H             1 RES     
   10666 H           -1.0240    -3.1400   -62.6610 H             1 RES     
   10667 O           47.2850    23.5450   -56.9550 O             1 RES     
   10668 H           46.4370    23.7920   -56.4870 H             1 RES     
   10669 H           47.6310    22.6820   -56.5870 H             1 RES     
   10670 O           26.8050    13.6550   -60.5010 O             1 RES     
   10671 H           26.9450    14.5840   -60.8430 H             1 RES     
   10672 H           26.7370    13.6730   -59.5030 H             1 RES     
   10673 O           23.2370    29.9110   -60.5660 O             1 RES     
   10674 H           22.7880    29.0650   -60.2820 H             1 RES     
   10675 H           23.0010    30.1120   -61.5170 H             1 RES     
   10676 O           46.8250    -1.4720   -61.7520 O             1 RES     
   10677 H           47.7630    -1.3480   -61.4310 H             1 RES     
   10678 H           46.5510    -2.4260   -61.6220 H             1 RES     
   10679 O           -2.5190    -0.4260   -52.6510 O             1 RES     
   10680 H           -2.5370    -0.9450   -51.7970 H             1 RES     
   10681 H           -3.4320    -0.4250   -53.0590 H             1 RES     
   10682 O           -0.5390    -6.3240   -57.7790 O             1 RES     
   10683 H           -0.0650    -5.7780   -57.0890 H             1 RES     
   10684 H           -0.7870    -7.2120   -57.3900 H             1 RES     
   10685 O            9.9550     6.0350   -51.0560 O             1 RES     
   10686 H            9.8780     5.2780   -50.4090 H             1 RES     
   10687 H            9.2280     5.9660   -51.7390 H             1 RES     
   10688 O           13.7370     2.6480   -54.2930 O             1 RES     
   10689 H           13.2420     3.5120   -54.2000 H             1 RES     
   10690 H           13.7660     2.1830   -53.4080 H             1 RES     
   10691 O           38.1920     6.6460   -59.0780 O             1 RES     
   10692 H           38.9800     6.0730   -59.3030 H             1 RES     
   10693 H           38.2510     7.5080   -59.5810 H             1 RES     
   10694 O            6.9760    23.5330   -58.3740 O             1 RES     
   10695 H            7.9280    23.2470   -58.2770 H             1 RES     
   10696 H            6.3990    22.9860   -57.7680 H             1 RES     
   10697 O           40.8500     0.7850   -56.2050 O             1 RES     
   10698 H           41.7890     0.4600   -56.0950 H             1 RES     
   10699 H           40.8000     1.4040   -56.9890 H             1 RES     
   10700 O           46.0970    14.7370   -64.0340 O             1 RES     
   10701 H           45.2830    15.3140   -64.0940 H             1 RES     
   10702 H           45.8230    13.7750   -64.0010 H             1 RES     
   10703 O            0.1120    -3.6360   -57.9660 O             1 RES     
   10704 H            0.6780    -4.2630   -58.5010 H             1 RES     
   10705 H           -0.8420    -3.9340   -58.0040 H             1 RES     
   10706 O           51.1660    14.4090   -61.8170 O             1 RES     
   10707 H           50.3610    14.1230   -62.3350 H             1 RES     
   10708 H           51.9190    14.5960   -62.4480 H             1 RES     
   10709 O           35.6760    -2.4760   -63.9310 O             1 RES     
   10710 H           36.6150    -2.2120   -63.7110 H             1 RES     
   10711 H           35.0460    -1.7740   -63.5980 H             1 RES     
   10712 O           24.8330    11.7960   -59.7450 O             1 RES     
   10713 H           25.6550    11.7880   -60.3130 H             1 RES     
   10714 H           24.5510    12.7410   -59.5800 H             1 RES     
   10715 O           41.9360    24.0170   -54.2180 O             1 RES     
   10716 H           42.0090    25.0140   -54.2320 H             1 RES     
   10717 H           40.9720    23.7540   -54.1760 H             1 RES     
   10718 O           44.6290    26.4090   -59.5230 O             1 RES     
   10719 H           43.8560    25.7920   -59.3800 H             1 RES     
   10720 H           45.4850    25.9040   -59.4130 H             1 RES     
   10721 O           39.4060     8.2210   -56.8320 O             1 RES     
   10722 H           38.7150     7.5730   -57.1490 H             1 RES     
   10723 H           39.2430     9.1150   -57.2500 H             1 RES     
   10724 O           27.9810     7.2470   -59.5980 O             1 RES     
   10725 H           28.8120     7.7760   -59.4290 H             1 RES     
   10726 H           27.2570     7.8570   -59.9210 H             1 RES     
   10727 O           35.9020     0.3500   -55.9780 O             1 RES     
   10728 H           36.7440     0.2900   -56.5130 H             1 RES     
   10729 H           36.1210     0.6170   -55.0400 H             1 RES     
   10730 O           24.8950     7.4790   -62.5580 O             1 RES     
   10731 H           24.4920     7.2270   -63.4370 H             1 RES     
   10732 H           24.1800     7.5160   -61.8600 H             1 RES     
   10733 O           35.6190    15.4670   -55.6330 O             1 RES     
   10734 H           35.5620    16.4400   -55.8530 H             1 RES     
   10735 H           35.4130    14.9280   -56.4500 H             1 RES     
   10736 O           15.6390    -7.4770   -61.0570 O             1 RES     
   10737 H           16.0630    -6.6000   -60.8360 H             1 RES     
   10738 H           14.8830    -7.3320   -61.6960 H             1 RES     
   10739 O           27.9920    27.3420   -62.4940 O             1 RES     
   10740 H           27.8180    26.3730   -62.6660 H             1 RES     
   10741 H           27.9930    27.5110   -61.5080 H             1 RES     
   10742 O           49.2120     4.4910   -60.6560 O             1 RES     
   10743 H           48.5220     4.2200   -61.3260 H             1 RES     
   10744 H           49.9780     3.8490   -60.6870 H             1 RES     
   10745 O           10.6960    29.9610   -52.9130 O             1 RES     
   10746 H           11.3310    29.6020   -52.2300 H             1 RES     
   10747 H           11.1820    30.1160   -53.7720 H             1 RES     
   10748 O           45.9650     7.6990   -63.4360 O             1 RES     
   10749 H           46.1840     7.7220   -62.4610 H             1 RES     
   10750 H           46.7540     7.3570   -63.9480 H             1 RES     
   10751 O           33.4620     0.2230   -63.7160 O             1 RES     
   10752 H           34.2310     0.8600   -63.7500 H             1 RES     
   10753 H           32.6090     0.7350   -63.6120 H             1 RES     
   10754 O           13.8200    21.7680   -62.5360 O             1 RES     
   10755 H           13.6590    21.2730   -61.6830 H             1 RES     
   10756 H           14.3610    21.1980   -63.1550 H             1 RES     
   10757 O           26.3710    22.3060   -52.8460 O             1 RES     
   10758 H           27.0670    21.6040   -52.6990 H             1 RES     
   10759 H           26.8130    23.1980   -52.9450 H             1 RES     
   10760 O           22.7940     2.4940   -57.1930 O             1 RES     
   10761 H           23.7610     2.3880   -56.9660 H             1 RES     
   10762 H           22.4370     1.6290   -57.5450 H             1 RES     
   10763 O           36.4740     2.9160   -57.3520 O             1 RES     
   10764 H           35.6370     3.0630   -57.8780 H             1 RES     
   10765 H           36.4990     3.5500   -56.5790 H             1 RES     
   10766 O           45.8460    11.8440   -58.4870 O             1 RES     
   10767 H           45.1170    11.1700   -58.5960 H             1 RES     
   10768 H           46.7340    11.3860   -58.5310 H             1 RES     
   10769 O           10.9240     9.9980   -61.2590 O             1 RES     
   10770 H           10.6280     9.0480   -61.3440 H             1 RES     
   10771 H           11.7620    10.0390   -60.7140 H             1 RES     
   10772 O           40.5200    17.3130   -55.2620 O             1 RES     
   10773 H           39.7370    17.1850   -54.6540 H             1 RES     
   10774 H           40.2130    17.7340   -56.1160 H             1 RES     
   10775 O           35.7300    16.9520   -58.1760 O             1 RES     
   10776 H           35.9340    17.7360   -57.5910 H             1 RES     
   10777 H           35.3220    17.2710   -59.0320 H             1 RES     
   10778 O           -3.9790     1.8750   -55.1730 O             1 RES     
   10779 H           -4.1640     2.1580   -54.2330 H             1 RES     
   10780 H           -3.3570     1.0920   -55.1700 H             1 RES     
   10781 O           11.5660    -5.5770   -63.9910 O             1 RES     
   10782 H           12.5410    -5.7940   -64.0340 H             1 RES     
   10783 H           11.4440    -4.5850   -63.9840 H             1 RES     
   10784 O           43.5040     8.7210   -52.6030 O             1 RES     
   10785 H           42.9450     8.6390   -51.7790 H             1 RES     
   10786 H           43.6210     9.6880   -52.8310 H             1 RES     
   10787 O           27.4720    -4.9630   -50.4410 O             1 RES     
   10788 H           27.1090    -4.0320   -50.4090 H             1 RES     
   10789 H           28.2570    -4.9940   -51.0600 H             1 RES     
   10790 O           -3.0080    -4.3000   -57.8850 O             1 RES     
   10791 H           -3.2570    -4.5230   -58.8270 H             1 RES     
   10792 H           -3.7930    -3.8920   -57.4190 H             1 RES     
   10793 O           20.0830    -0.7460   -61.2320 O             1 RES     
   10794 H           20.8380    -0.7140   -61.8850 H             1 RES     
   10795 H           20.2580    -0.1040   -60.4860 H             1 RES     
   10796 O           -0.2880    38.7950   -53.0260 O             1 RES     
   10797 H            0.1050    37.8980   -52.8250 H             1 RES     
   10798 H            0.3850    39.5070   -52.8270 H             1 RES     
   10799 O            8.0050    37.0390   -60.6370 O             1 RES     
   10800 H            8.7540    37.4930   -60.1560 H             1 RES     
   10801 H            8.1130    36.0470   -60.5620 H             1 RES     
   10802 O            2.2420    -1.8610   -50.7460 O             1 RES     
   10803 H            2.8060    -1.1040   -50.4150 H             1 RES     
   10804 H            2.6140    -2.7260   -50.4090 H             1 RES     
   10805 O           48.5270    37.7370   -51.1900 O             1 RES     
   10806 H           48.8830    37.2210   -50.4120 H             1 RES     
   10807 H           49.2430    38.3350   -51.5500 H             1 RES     
   10808 O           43.6200    -7.0910   -61.0200 O             1 RES     
   10809 H           43.1880    -7.5500   -61.7950 H             1 RES     
   10810 H           43.6340    -7.7080   -60.2320 H             1 RES     
   10811 O           12.9760    -3.4970   -53.8450 O             1 RES     
   10812 H           11.9860    -3.6330   -53.8660 H             1 RES     
   10813 H           13.2870    -3.1720   -54.7390 H             1 RES     
   10814 O           50.5330    17.2780   -55.0440 O             1 RES     
   10815 H           51.1860    18.0340   -55.0430 H             1 RES     
   10816 H           50.9480    16.4780   -54.6110 H             1 RES     
   10817 O           22.1280     6.8940   -58.7930 O             1 RES     
   10818 H           21.8530     6.0690   -58.2990 H             1 RES     
   10819 H           22.6080     6.6360   -59.6320 H             1 RES     
   10820 O           31.8730    -6.1650   -53.3230 O             1 RES     
   10821 H           32.2810    -5.7990   -52.4880 H             1 RES     
   10822 H           32.5830    -6.5970   -53.8800 H             1 RES     
   10823 O            5.1060    40.3550   -59.8700 O             1 RES     
   10824 H            5.4420    39.9700   -60.7290 H             1 RES     
   10825 H            5.7150    40.0870   -59.1230 H             1 RES     
   10826 O           33.2930    34.6910   -53.4800 O             1 RES     
   10827 H           32.6820    34.3120   -54.1740 H             1 RES     
   10828 H           34.0470    34.0550   -53.3160 H             1 RES     
   10829 O           -3.3570     4.6120   -56.5170 O             1 RES     
   10830 H           -4.1410     5.1390   -56.1910 H             1 RES     
   10831 H           -3.2410     3.7980   -55.9470 H             1 RES     
   10832 O            3.6390    21.4860   -63.0840 O             1 RES     
   10833 H            3.6830    21.6680   -64.0650 H             1 RES     
   10834 H            3.0220    20.7170   -62.9140 H             1 RES     
   10835 O           -6.1130    26.0730   -58.6710 O             1 RES     
   10836 H           -6.0180    25.0780   -58.6860 H             1 RES     
   10837 H           -6.0120    26.4040   -57.7320 H             1 RES     
   10838 O            1.1300    -0.9620   -59.4540 O             1 RES     
   10839 H            1.2870    -1.9080   -59.1710 H             1 RES     
   10840 H            0.5180    -0.9470   -60.2450 H             1 RES     
   10841 O           18.8990     3.6670   -55.6310 O             1 RES     
   10842 H           19.5340     4.4380   -55.5960 H             1 RES     
   10843 H           19.4140     2.8090   -55.6030 H             1 RES     
   10844 O           37.4600    35.0790   -57.3590 O             1 RES     
   10845 H           36.7640    34.3630   -57.3640 H             1 RES     
   10846 H           38.3690    34.6620   -57.3600 H             1 RES     
   10847 O           36.6820     1.8560   -52.5910 O             1 RES     
   10848 H           37.0410     0.9780   -52.2760 H             1 RES     
   10849 H           36.3460     2.3800   -51.8070 H             1 RES     
   10850 O           28.0430    27.3290   -57.0500 O             1 RES     
   10851 H           27.8210    27.5930   -57.9880 H             1 RES     
   10852 H           28.6250    28.0290   -56.6340 H             1 RES     
   10853 O            0.4770    17.1030   -56.3340 O             1 RES     
   10854 H            0.4060    17.8980   -55.7340 H             1 RES     
   10855 H            0.6030    17.4080   -57.2790 H             1 RES     
   10856 O           39.3160    37.3220   -61.9480 O             1 RES     
   10857 H           40.2810    37.3040   -62.2070 H             1 RES     
   10858 H           38.9480    38.2410   -62.0920 H             1 RES     
   10859 O           25.4700    28.2420   -59.1820 O             1 RES     
   10860 H           25.5240    28.0000   -58.2140 H             1 RES     
   10861 H           24.7600    28.9340   -59.3140 H             1 RES     
   10862 O           11.0890    27.5750   -59.2510 O             1 RES     
   10863 H           10.6420    27.8330   -58.3950 H             1 RES     
   10864 H           10.9030    26.6120   -59.4480 H             1 RES     
   10865 O           50.9250    18.8840   -57.0650 O             1 RES     
   10866 H           50.5910    19.8250   -57.0820 H             1 RES     
   10867 H           50.1510    18.2560   -56.9790 H             1 RES     
   10868 O           45.5910    -1.8340   -54.5390 O             1 RES     
   10869 H           45.1140    -2.7120   -54.5000 H             1 RES     
   10870 H           44.9210    -1.0930   -54.6010 H             1 RES     
   10871 O           35.4320    24.2440   -54.8180 O             1 RES     
   10872 H           34.6440    23.7190   -55.1380 H             1 RES     
   10873 H           36.2150    24.0690   -55.4160 H             1 RES     
   10874 O           -0.6630    20.8210   -50.9370 O             1 RES     
   10875 H           -1.6460    20.6930   -51.0670 H             1 RES     
   10876 H           -0.2000    19.9370   -51.0070 H             1 RES     
   10877 O           34.0830    37.9780   -60.0270 O             1 RES     
   10878 H           33.8130    38.3290   -59.1310 H             1 RES     
   10879 H           33.4350    37.2750   -60.3190 H             1 RES     
   10880 O           -0.8100     8.2520   -58.0940 O             1 RES     
   10881 H            0.0860     8.1500   -57.6630 H             1 RES     
   10882 H           -1.3330     8.9570   -57.6140 H             1 RES     
   10883 O           30.0940    39.9010   -54.9370 O             1 RES     
   10884 H           30.6050    39.1800   -55.4050 H             1 RES     
   10885 H           30.2610    39.8440   -53.9530 H             1 RES     
   10886 O           48.6880    29.7260   -55.8630 O             1 RES     
   10887 H           47.8280    30.2300   -55.9270 H             1 RES     
   10888 H           49.4420    30.3680   -55.7220 H             1 RES     
   10889 O           51.7510    29.8460   -53.5170 O             1 RES     
   10890 H           50.8130    29.5060   -53.5610 H             1 RES     
   10891 H           51.7420    30.8420   -53.4280 H             1 RES     
   10892 O           20.9130    13.3930   -59.4300 O             1 RES     
   10893 H           21.8150    13.2980   -59.8500 H             1 RES     
   10894 H           20.3720    12.5720   -59.6120 H             1 RES     
   10895 O           37.7430    28.8550   -59.0280 O             1 RES     
   10896 H           37.2560    29.0860   -59.8690 H             1 RES     
   10897 H           38.2080    27.9770   -59.1410 H             1 RES     
   10898 O           42.9020    35.0000   -62.3650 O             1 RES     
   10899 H           42.5570    35.6270   -63.0630 H             1 RES     
   10900 H           42.4650    34.1070   -62.4740 H             1 RES     
   10901 O           39.0200    14.1630   -51.5280 O             1 RES     
   10902 H           38.0210    14.1270   -51.5000 H             1 RES     
   10903 H           39.3190    15.1180   -51.5430 H             1 RES     
   10904 O           49.8410     4.1960   -55.8940 O             1 RES     
   10905 H           49.4780     4.9590   -56.4270 H             1 RES     
   10906 H           50.8020     4.0520   -56.1290 H             1 RES     
   10907 O           33.4250    17.7090   -64.0630 O             1 RES     
   10908 H           33.6410    18.6840   -64.0960 H             1 RES     
   10909 H           32.4320    17.5870   -64.0560 H             1 RES     
   10910 O           50.0410    -7.1640   -54.8210 O             1 RES     
   10911 H           50.0760    -6.1690   -54.9030 H             1 RES     
   10912 H           49.2950    -7.4220   -54.2060 H             1 RES     
   10913 O           34.8830    27.5900   -52.1090 O             1 RES     
   10914 H           35.5100    27.4960   -51.3370 H             1 RES     
   10915 H           35.0820    26.8840   -52.7890 H             1 RES     
   10916 O           51.4010    22.7630   -64.0910 O             1 RES     
   10917 H           50.8730    23.6010   -63.9630 H             1 RES     
   10918 H           51.9760    22.6050   -63.2890 H             1 RES     
   10919 O           20.6240    10.3580   -63.7560 O             1 RES     
   10920 H           20.9320     9.8640   -62.9450 H             1 RES     
   10921 H           21.1710    11.1880   -63.8690 H             1 RES     
   10922 O           25.7470     4.2080   -54.4480 O             1 RES     
   10923 H           24.8300     3.8710   -54.6590 H             1 RES     
   10924 H           26.2670     3.4930   -53.9810 H             1 RES     
   10925 O           51.4320    34.3260   -57.8970 O             1 RES     
   10926 H           50.5930    34.7590   -58.2240 H             1 RES     
   10927 H           51.2630    33.3550   -57.7270 H             1 RES     
   10928 O           -6.0370     6.6910   -58.1580 O             1 RES     
   10929 H           -5.8080     7.5310   -58.6490 H             1 RES     
   10930 H           -6.1140     6.8860   -57.1800 H             1 RES     
   10931 O           35.8850     5.7570   -57.5590 O             1 RES     
   10932 H           36.8590     5.5770   -57.6920 H             1 RES     
   10933 H           35.3530     5.2190   -58.2140 H             1 RES     
   10934 O           18.5190    32.1700   -51.2880 O             1 RES     
   10935 H           18.2840    32.9760   -51.8320 H             1 RES     
   10936 H           18.8950    32.4600   -50.4080 H             1 RES     
   10937 O           11.2630    11.0810   -54.9170 O             1 RES     
   10938 H           11.2200    12.0790   -54.9050 H             1 RES     
   10939 H           12.2170    10.7880   -54.9830 H             1 RES     
   10940 O           21.1300    18.8080   -58.5730 O             1 RES     
   10941 H           21.9540    18.8790   -58.0130 H             1 RES     
   10942 H           21.0540    17.8810   -58.9410 H             1 RES     
   10943 O           30.4850    25.9100   -61.7470 O             1 RES     
   10944 H           30.0140    26.0230   -62.6210 H             1 RES     
   10945 H           29.8610    26.1370   -60.9990 H             1 RES     
   10946 O           31.8410    -0.9490   -54.7350 O             1 RES     
   10947 H           32.7870    -0.6410   -54.6380 H             1 RES     
   10948 H           31.7780    -1.9160   -54.4860 H             1 RES     
   10949 O            7.3720    28.5980   -53.4780 O             1 RES     
   10950 H            6.5860    28.9250   -52.9540 H             1 RES     
   10951 H            8.1930    29.0900   -53.1900 H             1 RES     
   10952 O            9.9900    10.5500   -58.8380 O             1 RES     
   10953 H           10.9600    10.7450   -58.6960 H             1 RES     
   10954 H            9.7220     9.7640   -58.2810 H             1 RES     
   10955 O           48.1070    12.6790   -55.0060 O             1 RES     
   10956 H           48.2210    12.1690   -54.1540 H             1 RES     
   10957 H           48.9240    12.5680   -55.5730 H             1 RES     
   10958 O           34.7820    21.5570   -50.9540 O             1 RES     
   10959 H           35.5290    22.1980   -50.7780 H             1 RES     
   10960 H           35.1250    20.7850   -51.4900 H             1 RES     
   10961 O           29.3700     0.7260   -55.1790 O             1 RES     
   10962 H           29.4680     0.4150   -54.2350 H             1 RES     
   10963 H           29.8410     0.0890   -55.7910 H             1 RES     
   10964 O           -3.2000     7.3760   -57.7220 O             1 RES     
   10965 H           -2.6100     7.2310   -56.9280 H             1 RES     
   10966 H           -3.8710     6.6370   -57.7790 H             1 RES     
   10967 O           38.9380    -1.5610   -53.5610 O             1 RES     
   10968 H           38.9380    -0.6140   -53.8800 H             1 RES     
   10969 H           39.8620    -1.9380   -53.6340 H             1 RES     
   10970 O           19.4450    -5.6590   -61.6810 O             1 RES     
   10971 H           18.6170    -5.1730   -61.4040 H             1 RES     
   10972 H           19.5030    -6.5280   -61.1880 H             1 RES     
   10973 O           47.7080    30.1930   -53.2460 O             1 RES     
   10974 H           48.3480    29.5620   -53.6830 H             1 RES     
   10975 H           46.7880    30.0390   -53.6070 H             1 RES     
   10976 O           14.3910    13.4040   -52.4180 O             1 RES     
   10977 H           14.9460    13.1610   -51.6230 H             1 RES     
   10978 H           14.7390    12.9290   -53.2260 H             1 RES     
   10979 O           -3.3340    29.1550   -59.4540 O             1 RES     
   10980 H           -3.9750    29.4070   -58.7290 H             1 RES     
   10981 H           -2.9730    28.2400   -59.2770 H             1 RES     
   10982 O           -4.5510    21.2520   -56.4650 O             1 RES     
   10983 H           -5.5060    21.4160   -56.7090 H             1 RES     
   10984 H           -4.4860    21.0480   -55.4880 H             1 RES     
   10985 O           25.4500    36.7070   -54.0900 O             1 RES     
   10986 H           26.1410    36.7530   -54.8110 H             1 RES     
   10987 H           25.4100    35.7760   -53.7250 H             1 RES     
   10988 O           44.9910    -6.9620   -56.7480 O             1 RES     
   10989 H           45.8510    -7.0070   -57.2560 H             1 RES     
   10990 H           44.3920    -7.7080   -57.0380 H             1 RES     
   10991 O           47.2730     0.3700   -60.0840 O             1 RES     
   10992 H           46.4530     0.8880   -60.3220 H             1 RES     
   10993 H           48.0850     0.8890   -60.3500 H             1 RES     
   10994 O           18.4220    33.4650   -62.0630 O             1 RES     
   10995 H           17.5490    33.5880   -61.5940 H             1 RES     
   10996 H           18.5240    32.5070   -62.3330 H             1 RES     
   10997 O           51.9990    15.9930   -57.0080 O             1 RES     
   10998 H           52.0460    16.9910   -57.0220 H             1 RES     
   10999 H           51.1620    15.6920   -57.4650 H             1 RES     
   11000 O           32.4230     9.3810   -55.3180 O             1 RES     
   11001 H           31.8550     9.8580   -54.6470 H             1 RES     
   11002 H           32.7210    10.0260   -56.0210 H             1 RES     
   11003 O           49.1680    33.6790   -62.8540 O             1 RES     
   11004 H           48.9930    32.6950   -62.8570 H             1 RES     
   11005 H           48.2980    34.1720   -62.8400 H             1 RES     
   11006 O            9.8610    28.0900   -61.0010 O             1 RES     
   11007 H            9.6910    28.4300   -61.9260 H             1 RES     
   11008 H            9.1480    27.4330   -60.7520 H             1 RES     
   11009 O           11.2760     5.3590   -57.5420 O             1 RES     
   11010 H           11.5310     4.4180   -57.7600 H             1 RES     
   11011 H           10.9460     5.4050   -56.5990 H             1 RES     
   11012 O           29.9890    17.1790   -58.4770 O             1 RES     
   11013 H           30.9430    17.4510   -58.5990 H             1 RES     
   11014 H           29.7980    17.0590   -57.5020 H             1 RES     
   11015 O            0.6580    24.0310   -53.6420 O             1 RES     
   11016 H           -0.1950    24.5480   -53.5940 H             1 RES     
   11017 H            1.1090    24.0460   -52.7490 H             1 RES     
   11018 O           20.6720    28.6020   -55.2960 O             1 RES     
   11019 H           19.7080    28.4760   -55.0620 H             1 RES     
   11020 H           20.7890    28.5160   -56.2850 H             1 RES     
   11021 O           11.1730     7.9250   -59.1250 O             1 RES     
   11022 H           10.6990     7.4310   -59.8520 H             1 RES     
   11023 H           12.1110     8.1210   -59.4110 H             1 RES     
   11024 O           41.7330    24.3880   -50.9020 O             1 RES     
   11025 H           41.0440    25.0970   -50.7530 H             1 RES     
   11026 H           42.6430    24.8030   -50.9100 H             1 RES     
   11027 O           41.2290     3.5780   -62.9750 O             1 RES     
   11028 H           41.3550     3.2830   -62.0280 H             1 RES     
   11029 H           42.1030     3.8920   -63.3460 H             1 RES     
   11030 O            2.9550    40.1950   -59.0460 O             1 RES     
   11031 H            2.8160    40.3570   -60.0220 H             1 RES     
   11032 H            2.8390    39.2210   -58.8490 H             1 RES     
   11033 O           31.3410    -3.6660   -50.9080 O             1 RES     
   11034 H           30.6250    -4.3620   -50.9530 H             1 RES     
   11035 H           32.2370    -4.1080   -50.9010 H             1 RES     
   11036 O           45.0520     0.9970   -56.1130 O             1 RES     
   11037 H           44.3910     0.2610   -56.2520 H             1 RES     
   11038 H           44.5880     1.8800   -56.1860 H             1 RES     
   11039 O           -4.5930    22.4290   -50.8830 O             1 RES     
   11040 H           -5.0590    22.8080   -51.6810 H             1 RES     
   11041 H           -5.2050    21.7960   -50.4080 H             1 RES     
   11042 O           17.7700     6.2980   -59.7840 O             1 RES     
   11043 H           17.0280     6.9680   -59.7840 H             1 RES     
   11044 H           18.6500     6.7740   -59.7800 H             1 RES     
   11045 O           -0.4830    18.1420   -62.5940 O             1 RES     
   11046 H           -0.7180    19.0840   -62.3570 H             1 RES     
   11047 H           -1.3020    17.5700   -62.5410 H             1 RES     
   11048 O           39.4830     2.6100   -51.4080 O             1 RES     
   11049 H           38.6210     2.8410   -51.8580 H             1 RES     
   11050 H           40.2460     2.9800   -51.9370 H             1 RES     
   11051 O           43.0590    13.4080   -63.5030 O             1 RES     
   11052 H           43.8110    12.7870   -63.7180 H             1 RES     
   11053 H           43.3550    14.3530   -63.6440 H             1 RES     
   11054 O           46.4640    26.4530   -63.6830 O             1 RES     
   11055 H           46.9380    27.2700   -64.0090 H             1 RES     
   11056 H           47.0350    25.9820   -63.0100 H             1 RES     
   11057 O            6.5610     1.4930   -56.3910 O             1 RES     
   11058 H            7.1520     2.2330   -56.7100 H             1 RES     
   11059 H            5.6150     1.6860   -56.6510 H             1 RES     
   11060 O           -5.7550    12.1230   -57.6600 O             1 RES     
   11061 H           -6.0860    11.3850   -57.0730 H             1 RES     
   11062 H           -5.3950    12.8640   -57.0930 H             1 RES     
   11063 O           -5.5730    13.7410   -59.1400 O             1 RES     
   11064 H           -5.8890    14.6170   -59.5010 H             1 RES     
   11065 H           -4.5770    13.7580   -59.0450 H             1 RES     
   11066 O           47.9360    -0.9890   -57.2560 O             1 RES     
   11067 H           48.4220    -0.1480   -57.0250 H             1 RES     
   11068 H           47.2760    -0.8040   -57.9850 H             1 RES     
   11069 O           17.9970     6.8570   -54.7500 O             1 RES     
   11070 H           18.5010     6.0350   -54.4890 H             1 RES     
   11071 H           18.6080     7.6480   -54.7190 H             1 RES     
   11072 O           50.5850     9.8510   -55.7750 O             1 RES     
   11073 H           50.0510    10.6950   -55.8200 H             1 RES     
   11074 H           51.4460    10.0260   -55.2970 H             1 RES     
   11075 O            1.5910    26.2120   -52.6950 O             1 RES     
   11076 H            2.3610    25.7940   -52.2140 H             1 RES     
   11077 H            1.7800    27.1830   -52.8470 H             1 RES     
   11078 O           22.7730    -7.0150   -61.4470 O             1 RES     
   11079 H           22.8010    -7.7080   -62.1670 H             1 RES     
   11080 H           23.3470    -7.3060   -60.6810 H             1 RES     
   11081 O           44.5950     9.5560   -56.7530 O             1 RES     
   11082 H           44.4370     8.7290   -56.2140 H             1 RES     
   11083 H           45.5750     9.7520   -56.7850 H             1 RES     
   11084 O           22.1020    36.8330   -61.5930 O             1 RES     
   11085 H           22.5920    37.4760   -61.0050 H             1 RES     
   11086 H           22.5110    35.9240   -61.5080 H             1 RES     
   11087 O           14.7490     3.8290   -50.4540 O             1 RES     
   11088 H           15.1540     4.7420   -50.4500 H             1 RES     
   11089 H           14.2860     3.6730   -51.3270 H             1 RES     
   11090 O           23.1790     9.4360   -59.8470 O             1 RES     
   11091 H           22.3480     9.4330   -60.4030 H             1 RES     
   11092 H           23.9180     9.8800   -60.3540 H             1 RES     
   11093 O            8.6950     0.2980   -62.9120 O             1 RES     
   11094 H            8.3480     0.4820   -63.8310 H             1 RES     
   11095 H            8.9230     1.1620   -62.4620 H             1 RES     
   11096 O           11.4650    -2.8620   -61.8840 O             1 RES     
   11097 H           12.4280    -2.6910   -62.0880 H             1 RES     
   11098 H           10.9490    -2.0090   -61.9680 H             1 RES     
   11099 O           49.7730    37.5880   -54.0190 O             1 RES     
   11100 H           49.6270    38.5260   -53.7070 H             1 RES     
   11101 H           49.5410    36.9520   -53.2840 H             1 RES     
   11102 O           -5.5410     5.6480   -63.9040 O             1 RES     
   11103 H           -6.1090     6.4480   -64.0950 H             1 RES     
   11104 H           -6.1050     4.9270   -63.5000 H             1 RES     
   11105 O            1.3880    12.6800   -55.7620 O             1 RES     
   11106 H            0.8210    12.7140   -54.9400 H             1 RES     
   11107 H            2.0340    11.9200   -55.6920 H             1 RES     
   11108 O           14.4220    -5.3630   -53.9230 O             1 RES     
   11109 H           15.0880    -5.8880   -54.4510 H             1 RES     
   11110 H           13.5580    -5.8650   -53.8810 H             1 RES     
   11111 O           45.9390     7.3610   -54.8120 O             1 RES     
   11112 H           46.3240     7.7500   -55.6480 H             1 RES     
   11113 H           46.1320     7.9670   -54.0410 H             1 RES     
   11114 O           29.9680    26.0080   -52.4980 O             1 RES     
   11115 H           30.9070    25.6680   -52.4520 H             1 RES     
   11116 H           29.3320    25.2360   -52.4740 H             1 RES     
   11117 O           25.5420    25.4780   -59.0390 O             1 RES     
   11118 H           24.6610    25.9230   -58.8820 H             1 RES     
   11119 H           26.2420    26.1730   -59.2060 H             1 RES     
   11120 O           -3.0150    27.6900   -53.9420 O             1 RES     
   11121 H           -3.1120    28.6760   -54.0720 H             1 RES     
   11122 H           -3.9200    27.2770   -53.8290 H             1 RES     
   11123 O           36.2620    26.2820   -54.8320 O             1 RES     
   11124 H           35.3200    26.5920   -54.9590 H             1 RES     
   11125 H           36.7970    27.0080   -54.4000 H             1 RES     
   11126 O            2.1800    34.5620   -63.9890 O             1 RES     
   11127 H            2.9540    33.9330   -64.0640 H             1 RES     
   11128 H            2.5060    35.4570   -63.6820 H             1 RES     
   11129 O            7.9030    13.7250   -57.2610 O             1 RES     
   11130 H            7.3780    14.2660   -56.6050 H             1 RES     
   11131 H            8.7980    13.5050   -56.8730 H             1 RES     
   11132 O           25.0730    33.1100   -59.9000 O             1 RES     
   11133 H           24.3630    33.7460   -59.6010 H             1 RES     
   11134 H           24.6670    32.2110   -60.0670 H             1 RES     
   11135 O            1.1330     1.4660   -53.8260 O             1 RES     
   11136 H            1.9280     1.9970   -53.5350 H             1 RES     
   11137 H            1.3870     0.8750   -54.5920 H             1 RES     
   11138 O           14.1550     6.1810   -56.6860 O             1 RES     
   11139 H           14.1040     6.6080   -55.7840 H             1 RES     
   11140 H           13.2580     6.2190   -57.1260 H             1 RES     
   11141 O           29.8770    23.7140   -55.0680 O             1 RES     
   11142 H           28.9590    23.8080   -55.4500 H             1 RES     
   11143 H           29.8370    23.8120   -54.0730 H             1 RES     
   11144 O           15.2350    35.5630   -61.1480 O             1 RES     
   11145 H           15.4960    34.7390   -60.6470 H             1 RES     
   11146 H           14.7180    35.3070   -61.9650 H             1 RES     
   11147 O           13.3440    22.5300   -50.6660 O             1 RES     
   11148 H           14.2430    22.1230   -50.8250 H             1 RES     
   11149 H           13.4270    23.5270   -50.6520 H             1 RES     
   11150 O           -2.7090    27.8240   -50.4100 O             1 RES     
   11151 H           -2.9910    28.6220   -50.9400 H             1 RES     
   11152 H           -3.1320    27.0020   -50.7930 H             1 RES     
   11153 O           35.8750    11.4290   -62.7750 O             1 RES     
   11154 H           35.9470    11.3630   -61.7800 H             1 RES     
   11155 H           36.7910    11.4170   -63.1770 H             1 RES     
   11156 O           -0.4900    32.0970   -58.7060 O             1 RES     
   11157 H           -0.4470    32.8100   -58.0060 H             1 RES     
   11158 H           -0.1810    31.2290   -58.3170 H             1 RES     
   11159 O           27.5800    -6.9900   -57.3560 O             1 RES     
   11160 H           27.9300    -6.6950   -56.4680 H             1 RES     
   11161 H           28.1550    -6.6160   -58.0830 H             1 RES     
   11162 O           19.1220    29.3920   -57.4540 O             1 RES     
   11163 H           19.2980    28.7540   -58.2030 H             1 RES     
   11164 H           18.3850    29.0350   -56.8790 H             1 RES     
   11165 O           32.1100    40.0260   -60.3530 O             1 RES     
   11166 H           31.8090    39.1240   -60.6610 H             1 RES     
   11167 H           32.2640    40.0060   -59.3640 H             1 RES     
   11168 O           47.1670    33.8680   -51.9460 O             1 RES     
   11169 H           47.7930    33.6980   -52.7060 H             1 RES     
   11170 H           46.3290    33.3380   -52.0790 H             1 RES     
   11171 O           27.9890    29.0530   -52.9550 O             1 RES     
   11172 H           28.8960    29.4710   -52.9410 H             1 RES     
   11173 H           27.3010    29.7380   -52.7120 H             1 RES     
   11174 O           26.8900     9.9700   -60.4160 O             1 RES     
   11175 H           27.6830    10.4660   -60.7700 H             1 RES     
   11176 H           26.8110    10.1260   -59.4310 H             1 RES     
   11177 O            7.8030    10.0560   -60.4740 O             1 RES     
   11178 H            8.7070     9.6400   -60.3790 H             1 RES     
   11179 H            7.8950    11.0510   -60.5000 H             1 RES     
   11180 O           50.4190    39.1940   -63.8340 O             1 RES     
   11181 H           51.3940    39.3640   -63.9660 H             1 RES     
   11182 H           49.9460    40.0620   -63.6800 H             1 RES     
   11183 O           27.0100    30.5580   -59.7100 O             1 RES     
   11184 H           27.1610    29.5880   -59.8970 H             1 RES     
   11185 H           26.0880    30.6880   -59.3440 H             1 RES     
   11186 O           25.9230    10.5140   -62.3770 O             1 RES     
   11187 H           25.5630     9.6010   -62.1920 H             1 RES     
   11188 H           25.1730    11.1760   -62.3710 H             1 RES     
   11189 O           29.5600    -6.8120   -53.1320 O             1 RES     
   11190 H           29.7730    -5.9290   -52.7140 H             1 RES     
   11191 H           30.2050    -7.5010   -52.8020 H             1 RES     
   11192 O           24.3150    -6.1940   -58.3830 O             1 RES     
   11193 H           23.6770    -6.9630   -58.3970 H             1 RES     
   11194 H           23.8050    -5.3350   -58.4290 H             1 RES     
   11195 O           33.6800    20.2600   -56.7070 O             1 RES     
   11196 H           34.5380    19.9060   -57.0790 H             1 RES     
   11197 H           33.4390    19.7510   -55.8810 H             1 RES     
   11198 O           48.4890    28.4960   -51.3150 O             1 RES     
   11199 H           47.7780    29.1980   -51.2840 H             1 RES     
   11200 H           49.2780    28.8420   -51.8240 H             1 RES     
   11201 O           22.1970    22.7420   -57.4910 O             1 RES     
   11202 H           22.0020    21.7620   -57.4700 H             1 RES     
   11203 H           23.0550    22.9020   -57.9790 H             1 RES     
   11204 O           -2.3300    39.5060   -60.4690 O             1 RES     
   11205 H           -2.4950    40.2660   -59.8410 H             1 RES     
   11206 H           -1.5000    39.6840   -60.9970 H             1 RES     
   11207 O           43.6860    14.2900   -52.6950 O             1 RES     
   11208 H           42.9890    13.6300   -52.9740 H             1 RES     
   11209 H           44.4640    13.8040   -52.2950 H             1 RES     
   11210 O           22.8550    17.7270   -61.1480 O             1 RES     
   11211 H           23.5440    18.4490   -61.0950 H             1 RES     
   11212 H           23.2660    16.8550   -60.8810 H             1 RES     
   11213 O           12.0550    12.0040   -52.5420 O             1 RES     
   11214 H           12.7600    11.3140   -52.3810 H             1 RES     
   11215 H           12.4110    12.7080   -53.1570 H             1 RES     
   11216 O           41.2400    18.9760   -52.6530 O             1 RES     
   11217 H           41.9490    19.6800   -52.6790 H             1 RES     
   11218 H           41.1470    18.5630   -53.5590 H             1 RES     
   11219 O            2.8050     4.5670   -53.4490 O             1 RES     
   11220 H            1.9860     4.3030   -53.9580 H             1 RES     
   11221 H            3.1250     3.7900   -52.9060 H             1 RES     
   11222 O           49.6700    -1.6250   -59.9640 O             1 RES     
   11223 H           50.3070    -2.1280   -60.5480 H             1 RES     
   11224 H           49.6360    -0.6680   -60.2530 H             1 RES     
   11225 O           -3.6160    22.6610   -61.5660 O             1 RES     
   11226 H           -3.2640    23.0010   -62.4370 H             1 RES     
   11227 H           -2.8640    22.5740   -60.9120 H             1 RES     
   11228 O           50.3250     4.5340   -58.4570 O             1 RES     
   11229 H           50.9810     5.1750   -58.0610 H             1 RES     
   11230 H           50.7700     3.6500   -58.6050 H             1 RES     
   11231 O           -5.5840    -3.8620   -54.6640 O             1 RES     
   11232 H           -6.1140    -4.5170   -55.2010 H             1 RES     
   11233 H           -5.5410    -2.9890   -55.1510 H             1 RES     
   11234 O           -4.0760    25.4140   -62.2260 O             1 RES     
   11235 H           -3.6390    25.1230   -63.0770 H             1 RES     
   11236 H           -4.2450    26.3990   -62.2580 H             1 RES     
   11237 O           18.2580    19.4750   -51.8520 O             1 RES     
   11238 H           17.7850    20.3230   -52.0900 H             1 RES     
   11239 H           17.7190    18.9710   -51.1770 H             1 RES     
   11240 O           43.4770    20.0670   -50.9550 O             1 RES     
   11241 H           44.4310    20.3520   -50.8740 H             1 RES     
   11242 H           43.4210    19.0690   -50.9080 H             1 RES     
   11243 O           16.9110    -2.5100   -61.0090 O             1 RES     
   11244 H           17.3640    -3.3990   -61.0520 H             1 RES     
   11245 H           15.9190    -2.6400   -61.0080 H             1 RES     
   11246 O           46.5590     3.1530   -54.0050 O             1 RES     
   11247 H           47.4420     3.1860   -54.4710 H             1 RES     
   11248 H           46.5830     3.7470   -53.2000 H             1 RES     
   11249 O           36.0610     6.4110   -62.3520 O             1 RES     
   11250 H           36.4520     7.3180   -62.5010 H             1 RES     
   11251 H           36.7390     5.7120   -62.5830 H             1 RES     
   11252 O           21.0820    -5.6550   -59.5120 O             1 RES     
   11253 H           22.0070    -6.0340   -59.4870 H             1 RES     
   11254 H           21.1290    -4.6560   -59.4740 H             1 RES     
   11255 O           24.7350    16.2940   -54.6380 O             1 RES     
   11256 H           24.7430    17.1890   -55.0810 H             1 RES     
   11257 H           24.8370    16.4100   -53.6500 H             1 RES     
   11258 O            6.6780    10.8340   -50.4140 O             1 RES     
   11259 H            6.2670    11.5570   -50.9690 H             1 RES     
   11260 H            6.6910     9.9800   -50.9350 H             1 RES     
   11261 O           41.7300    26.0020   -58.8560 O             1 RES     
   11262 H           40.9040    25.5940   -58.4690 H             1 RES     
   11263 H           41.4830    26.8070   -59.3960 H             1 RES     
   11264 O           16.8770    24.5270   -50.5900 O             1 RES     
   11265 H           16.2920    25.3370   -50.5940 H             1 RES     
   11266 H           17.8370    24.8090   -50.5900 H             1 RES     
   11267 O           15.7250    22.0280   -52.9430 O             1 RES     
   11268 H           15.5270    22.2200   -53.9030 H             1 RES     
   11269 H           15.8370    21.0420   -52.8150 H             1 RES     
   11270 O           31.7320    27.9610   -56.8260 O             1 RES     
   11271 H           32.4760    28.0810   -56.1710 H             1 RES     
   11272 H           31.5280    26.9860   -56.9250 H             1 RES     
   11273 O           39.4840    30.5630   -52.8090 O             1 RES     
   11274 H           39.9770    29.8670   -52.2870 H             1 RES     
   11275 H           40.1380    31.1290   -53.3110 H             1 RES     
   11276 O           42.9730    32.9380   -50.9670 O             1 RES     
   11277 H           43.5980    32.2330   -51.3020 H             1 RES     
   11278 H           42.0620    32.5440   -50.8400 H             1 RES     
   11279 O           42.8690    -3.0170   -50.4180 O             1 RES     
   11280 H           42.7260    -4.0060   -50.4080 H             1 RES     
   11281 H           43.8480    -2.8220   -50.4830 H             1 RES     
   11282 O           51.5310    32.9430   -61.1070 O             1 RES     
   11283 H           52.0080    32.2060   -61.5860 H             1 RES     
   11284 H           50.7510    32.5650   -60.6070 H             1 RES     
   11285 O           13.9020    31.7800   -56.3100 O             1 RES     
   11286 H           13.0390    31.6400   -55.8260 H             1 RES     
   11287 H           14.2730    32.6790   -56.0770 H             1 RES     
   11288 O           13.5880    -7.1300   -58.7760 O             1 RES     
   11289 H           14.3840    -7.7070   -58.5990 H             1 RES     
   11290 H           12.7970    -7.7070   -58.9840 H             1 RES     
   11291 O           51.0080     8.3730   -60.9290 O             1 RES     
   11292 H           50.7700     8.1540   -61.8740 H             1 RES     
   11293 H           50.8760     9.3520   -60.7700 H             1 RES     
   11294 O           21.8870    32.9490   -50.7560 O             1 RES     
   11295 H           22.5980    33.6390   -50.8900 H             1 RES     
   11296 H           21.2590    32.9620   -51.5340 H             1 RES     
   11297 O           33.3510     1.4820   -54.3510 O             1 RES     
   11298 H           33.3260     1.9730   -53.4800 H             1 RES     
   11299 H           33.7770     2.0600   -55.0470 H             1 RES     
   11300 O           26.7860    -1.3700   -63.3320 O             1 RES     
   11301 H           27.2140    -0.5460   -63.7000 H             1 RES     
   11302 H           27.0660    -2.1630   -63.8740 H             1 RES     
   11303 O           49.1990    27.6070   -61.8120 O             1 RES     
   11304 H           48.5560    27.6770   -62.5740 H             1 RES     
   11305 H           50.0890    27.9660   -62.0930 H             1 RES     
   11306 O            0.9770    39.2190   -62.6870 O             1 RES     
   11307 H            0.9000    38.4770   -62.0220 H             1 RES     
   11308 H            1.5810    38.9380   -63.4330 H             1 RES     
   11309 O           27.9140     2.4420   -60.2960 O             1 RES     
   11310 H           28.5030     1.7170   -59.9430 H             1 RES     
   11311 H           28.0710     2.5520   -61.2780 H             1 RES     
   11312 O           38.4110     1.8420   -61.2190 O             1 RES     
   11313 H           37.4970     2.0680   -60.8840 H             1 RES     
   11314 H           38.9050     1.3260   -60.5190 H             1 RES     
   11315 O            9.1350    33.5280   -53.5290 O             1 RES     
   11316 H           10.0690    33.7790   -53.2770 H             1 RES     
   11317 H            8.7910    32.8390   -52.8910 H             1 RES     
   11318 O           38.9770    20.7550   -51.6790 O             1 RES     
   11319 H           39.0880    19.8180   -52.0080 H             1 RES     
   11320 H           38.0780    21.1000   -51.9510 H             1 RES     
   11321 O            5.3780     5.9660   -60.6790 O             1 RES     
   11322 H            4.7270     5.2110   -60.7430 H             1 RES     
   11323 H            6.1030     5.7290   -60.0320 H             1 RES     
   11324 O           23.4410    10.8490   -55.2550 O             1 RES     
   11325 H           24.3600    11.0270   -55.6030 H             1 RES     
   11326 H           23.0330    10.0900   -55.7630 H             1 RES     
   11327 O           23.8150     2.2130   -52.6820 O             1 RES     
   11328 H           23.7410     3.2100   -52.6640 H             1 RES     
   11329 H           24.7780     1.9490   -52.6290 H             1 RES     
   11330 O           12.1390     1.6620   -55.4400 O             1 RES     
   11331 H           12.3550     0.7430   -55.1090 H             1 RES     
   11332 H           11.1610     1.8370   -55.3250 H             1 RES     
   11333 O           42.9950     1.0990   -51.0660 O             1 RES     
   11334 H           42.6780     1.8590   -51.6330 H             1 RES     
   11335 H           43.8970     1.3170   -50.6910 H             1 RES     
   11336 O           -2.2370    34.4660   -56.6950 O             1 RES     
   11337 H           -2.1100    33.4890   -56.5280 H             1 RES     
   11338 H           -1.4720    34.9740   -56.2990 H             1 RES     
   11339 O           18.2080    19.8540   -59.5700 O             1 RES     
   11340 H           18.9310    20.4290   -59.1900 H             1 RES     
   11341 H           18.5880    18.9660   -59.8280 H             1 RES     
   11342 O            5.7070    20.1280   -62.0880 O             1 RES     
   11343 H            5.7470    21.0890   -62.3580 H             1 RES     
   11344 H            4.7880    19.9120   -61.7580 H             1 RES     
   11345 O           21.6440     3.6620   -55.0100 O             1 RES     
   11346 H           22.1700     3.5640   -54.1650 H             1 RES     
   11347 H           22.2320     4.0360   -55.7270 H             1 RES     
   11348 O            4.3270    -5.9430   -52.1590 O             1 RES     
   11349 H            4.3980    -6.8260   -52.6220 H             1 RES     
   11350 H            5.0080    -5.3140   -52.5340 H             1 RES     
   11351 O           24.3840     4.8100   -57.6170 O             1 RES     
   11352 H           24.1410     4.5800   -56.6760 H             1 RES     
   11353 H           23.5800     4.7090   -58.2040 H             1 RES     
   11354 O           26.5970    32.6120   -62.0590 O             1 RES     
   11355 H           25.6820    32.5430   -62.4560 H             1 RES     
   11356 H           26.6090    32.1550   -61.1690 H             1 RES     
   11357 O           48.1210    21.9200   -60.0880 O             1 RES     
   11358 H           48.2290    21.1560   -60.7230 H             1 RES     
   11359 H           48.8620    22.5770   -60.2260 H             1 RES     
   11360 O           24.3570     0.0280   -56.9160 O             1 RES     
   11361 H           24.6180    -0.8970   -56.6440 H             1 RES     
   11362 H           24.4820     0.1350   -57.9020 H             1 RES     
   11363 O            9.1560    37.8860   -54.2890 O             1 RES     
   11364 H            9.5680    38.5790   -53.6990 H             1 RES     
   11365 H            9.8770    37.3700   -54.7520 H             1 RES     
   11366 O           -5.4010     4.2870   -60.2780 O             1 RES     
   11367 H           -5.7200     4.2890   -61.2250 H             1 RES     
   11368 H           -6.0300     3.7530   -59.7140 H             1 RES     
   11369 O           44.8330    22.7370   -53.0410 O             1 RES     
   11370 H           44.2410    22.4180   -52.3020 H             1 RES     
   11371 H           44.8080    23.7360   -53.0810 H             1 RES     
   11372 O            6.5350    39.4880   -62.5760 O             1 RES     
   11373 H            6.1510    38.5740   -62.4450 H             1 RES     
   11374 H            6.1890    39.8750   -63.4310 H             1 RES     
   11375 O           15.7470    10.9770   -53.3810 O             1 RES     
   11376 H           16.4400    10.3020   -53.6300 H             1 RES     
   11377 H           14.8410    10.6340   -53.6290 H             1 RES     
   11378 O           -4.9160     7.0190   -53.4060 O             1 RES     
   11379 H           -4.6680     6.2170   -52.8630 H             1 RES     
   11380 H           -5.2180     6.7270   -54.3140 H             1 RES     
   11381 O           46.1890    34.1200   -63.7220 O             1 RES     
   11382 H           46.2050    33.5020   -62.9370 H             1 RES     
   11383 H           45.2620    34.1610   -64.0960 H             1 RES     
   11384 O           -0.8930    27.7610   -55.6800 O             1 RES     
   11385 H           -1.0110    28.6740   -55.2910 H             1 RES     
   11386 H           -0.1720    27.2770   -55.1820 H             1 RES     
   11387 O            4.1970    25.0950   -63.7400 O             1 RES     
   11388 H            3.5160    24.3640   -63.7850 H             1 RES     
   11389 H            5.0690    24.7610   -64.0980 H             1 RES     
   11390 O           51.5110    25.4770   -55.7850 O             1 RES     
   11391 H           50.5870    25.1020   -55.8490 H             1 RES     
   11392 H           51.5490    26.3550   -56.2610 H             1 RES     
   11393 O           19.7740    27.2110   -60.3510 O             1 RES     
   11394 H           20.1760    26.3000   -60.2740 H             1 RES     
   11395 H           18.7980    27.1650   -60.1350 H             1 RES     
   11396 O            8.7340    21.2360   -52.9300 O             1 RES     
   11397 H            7.9680    20.6560   -53.2040 H             1 RES     
   11398 H            9.5820    20.8780   -53.3210 H             1 RES     
   11399 O           26.2440    -0.6980   -60.4080 O             1 RES     
   11400 H           26.4420    -1.6750   -60.3420 H             1 RES     
   11401 H           27.0980    -0.1800   -60.3640 H             1 RES     
   11402 O           -4.6980     2.6590   -64.0950 O             1 RES     
   11403 H           -4.2000     3.4540   -63.7510 H             1 RES     
   11404 H           -5.6800     2.8470   -64.0790 H             1 RES     
   11405 O           14.2630    36.2490   -58.3060 O             1 RES     
   11406 H           15.0140    35.7560   -58.7430 H             1 RES     
   11407 H           14.5010    37.2170   -58.2270 H             1 RES     
   11408 O           -1.2500    18.5880   -57.0380 O             1 RES     
   11409 H           -0.9940    18.8460   -57.9690 H             1 RES     
   11410 H           -2.2030    18.2840   -57.0260 H             1 RES     
   11411 O           -3.5540    11.3380   -54.2370 O             1 RES     
   11412 H           -4.3780    10.7780   -54.3160 H             1 RES     
   11413 H           -2.7660    10.7490   -54.0530 H             1 RES     
   11414 O           14.0290    36.3680   -56.0510 O             1 RES     
   11415 H           15.0270    36.3410   -56.1080 H             1 RES     
   11416 H           13.7340    37.2870   -55.7900 H             1 RES     
   11417 O           13.4300    15.4110   -53.6670 O             1 RES     
   11418 H           12.6420    14.8060   -53.7750 H             1 RES     
   11419 H           13.6750    15.4710   -52.6990 H             1 RES     
   11420 O            8.7530     7.7920   -53.9280 O             1 RES     
   11421 H            8.3120     7.0540   -53.4170 H             1 RES     
   11422 H            9.6510     7.9810   -53.5310 H             1 RES     
   11423 O           24.6580    -7.7080   -52.9820 O             1 RES     
   11424 H           23.6600    -7.6870   -52.9280 H             1 RES     
   11425 H           24.9420    -7.6050   -53.9350 H             1 RES     
   11426 O            5.8070    -3.3010   -63.4890 O             1 RES     
   11427 H            5.2440    -2.6900   -64.0440 H             1 RES     
   11428 H            5.6290    -3.1320   -62.5190 H             1 RES     
   11429 O           12.3790    -0.4180   -51.3000 O             1 RES     
   11430 H           11.5800    -0.8110   -51.7540 H             1 RES     
   11431 H           12.6100     0.4560   -51.7280 H             1 RES     
   11432 O           30.7960     6.1320   -53.4550 O             1 RES     
   11433 H           30.1580     5.5430   -53.9500 H             1 RES     
   11434 H           30.9170     6.9890   -53.9560 H             1 RES     
   11435 O           16.0780    -2.2500   -54.5770 O             1 RES     
   11436 H           16.2400    -1.3700   -55.0220 H             1 RES     
   11437 H           15.4190    -2.7790   -55.1120 H             1 RES     
   11438 O            7.9250    11.8860   -52.7460 O             1 RES     
   11439 H            7.2350    12.6090   -52.7570 H             1 RES     
   11440 H            7.4740    10.9930   -52.7230 H             1 RES     
   11441 O           27.3460    16.5120   -50.7580 O             1 RES     
   11442 H           27.8490    16.8130   -51.5680 H             1 RES     
   11443 H           26.7930    17.2680   -50.4080 H             1 RES     
   11444 O           13.6010    31.4790   -51.9370 O             1 RES     
   11445 H           14.0250    30.6020   -51.7150 H             1 RES     
   11446 H           14.2400    32.2200   -51.7300 H             1 RES     
   11447 O           12.8870    15.1250   -58.0050 O             1 RES     
   11448 H           13.4750    15.8680   -57.6880 H             1 RES     
   11449 H           13.3230    14.2470   -57.8090 H             1 RES     
   11450 O           16.3230    17.6290   -60.8480 O             1 RES     
   11451 H           16.5690    18.5690   -60.6130 H             1 RES     
   11452 H           17.0940    17.1880   -61.3090 H             1 RES     
   11453 O           33.1960    32.7490   -56.0220 O             1 RES     
   11454 H           33.3190    33.7250   -56.1970 H             1 RES     
   11455 H           33.5640    32.5220   -55.1200 H             1 RES     
   11456 O           -3.8180    14.5900   -56.4140 O             1 RES     
   11457 H           -3.2240    13.8860   -56.0260 H             1 RES     
   11458 H           -3.5620    14.7540   -57.3670 H             1 RES     
   11459 O            8.0070    35.8930   -50.8900 O             1 RES     
   11460 H            8.8610    36.0880   -50.4080 H             1 RES     
   11461 H            7.5710    35.0900   -50.4850 H             1 RES     
   11462 O           46.5760    28.4410   -55.6590 O             1 RES     
   11463 H           46.1460    27.8020   -55.0220 H             1 RES     
   11464 H           45.8840    28.8140   -56.2770 H             1 RES     
   11465 O           47.4090    22.7980   -54.3990 O             1 RES     
   11466 H           47.1790    21.8270   -54.4500 H             1 RES     
   11467 H           46.5680    23.3370   -54.3380 H             1 RES     
   11468 O            8.5920    14.4880   -54.6720 O             1 RES     
   11469 H            8.5820    15.2860   -54.0700 H             1 RES     
   11470 H            9.5310    14.2960   -54.9550 H             1 RES     
   11471 O           17.5790    19.9430   -54.3590 O             1 RES     
   11472 H           17.3710    20.9200   -54.3890 H             1 RES     
   11473 H           18.5690    19.8100   -54.4110 H             1 RES     
   11474 O           41.0480     4.4610   -55.2080 O             1 RES     
   11475 H           41.6490     5.2300   -55.4200 H             1 RES     
   11476 H           41.1520     4.2120   -54.2440 H             1 RES     
   11477 O           32.5200    33.5630   -60.4080 O             1 RES     
   11478 H           33.3860    33.1480   -60.1320 H             1 RES     
   11479 H           31.8620    32.8450   -60.6330 H             1 RES     
   11480 O           18.6550    17.5870   -52.9200 O             1 RES     
   11481 H           17.8710    17.8430   -53.4840 H             1 RES     
   11482 H           19.4780    18.0360   -53.2690 H             1 RES     
   11483 O           10.1740    10.6020   -64.0660 O             1 RES     
   11484 H            9.1910    10.4220   -64.0980 H             1 RES     
   11485 H           10.6720     9.7350   -64.0530 H             1 RES     
   11486 O           15.2660    20.6840   -56.2170 O             1 RES     
   11487 H           14.5380    21.0620   -56.7880 H             1 RES     
   11488 H           15.8760    21.4210   -55.9230 H             1 RES     
   11489 O           40.3210    31.1050   -61.2730 O             1 RES     
   11490 H           40.3380    32.0880   -61.4510 H             1 RES     
   11491 H           39.7880    30.6460   -61.9830 H             1 RES     
   11492 O           23.9280     7.2150   -56.0370 O             1 RES     
   11493 H           24.8020     7.5580   -55.6940 H             1 RES     
   11494 H           23.6630     6.4010   -55.5200 H             1 RES     
   11495 O           -2.8280    17.7330   -53.4110 O             1 RES     
   11496 H           -3.8060    17.6820   -53.6120 H             1 RES     
   11497 H           -2.4910    18.6510   -53.6220 H             1 RES     
   11498 O           30.2160    -4.3440   -62.3110 O             1 RES     
   11499 H           29.9050    -5.1820   -62.7580 H             1 RES     
   11500 H           31.0920    -4.0620   -62.7030 H             1 RES     
   11501 O           39.8480     5.4110   -62.5870 O             1 RES     
   11502 H           39.1780     4.6700   -62.6270 H             1 RES     
   11503 H           40.4430     5.2810   -61.7940 H             1 RES     
   11504 O           -3.7430    36.4440   -61.1920 O             1 RES     
   11505 H           -3.5330    37.3770   -61.4810 H             1 RES     
   11506 H           -3.0560    35.8170   -61.5600 H             1 RES     
   11507 O           27.9070    36.9840   -63.7880 O             1 RES     
   11508 H           27.3880    36.2690   -63.3190 H             1 RES     
   11509 H           27.2820    37.7010   -64.0970 H             1 RES     
   11510 O           43.0420    38.5920   -62.4220 O             1 RES     
   11511 H           42.7100    39.4700   -62.0790 H             1 RES     
   11512 H           42.2710    38.0560   -62.7670 H             1 RES     
   11513 O           39.7740    22.2540   -62.6780 O             1 RES     
   11514 H           39.9560    21.3030   -62.4310 H             1 RES     
   11515 H           39.0240    22.2910   -63.3380 H             1 RES     
   11516 O           22.7090    15.2330   -55.3200 O             1 RES     
   11517 H           21.7700    14.9770   -55.5440 H             1 RES     
   11518 H           23.0420    15.9000   -55.9870 H             1 RES     
   11519 O            0.9230    -5.1240   -51.0860 O             1 RES     
   11520 H            0.0390    -4.7700   -51.3890 H             1 RES     
   11521 H            1.3170    -4.5030   -50.4080 H             1 RES     
   11522 O           -3.3520     5.6430   -63.6880 O             1 RES     
   11523 H           -3.5980     6.5910   -63.4870 H             1 RES     
   11524 H           -2.4400     5.6140   -64.0980 H             1 RES     
   11525 O           40.4270    19.0790   -62.8620 O             1 RES     
   11526 H           40.2090    18.3110   -63.4630 H             1 RES     
   11527 H           40.5880    18.7420   -61.9340 H             1 RES     
   11528 O           20.2520    25.1540   -58.3970 O             1 RES     
   11529 H           21.2140    25.1790   -58.6670 H             1 RES     
   11530 H           20.1520    24.6030   -57.5680 H             1 RES     
   11531 O           19.3420    -2.2150   -50.8300 O             1 RES     
   11532 H           20.0800    -2.8220   -50.5360 H             1 RES     
   11533 H           18.4780    -2.7190   -50.8360 H             1 RES     
   11534 O           15.2030     4.7620   -55.3100 O             1 RES     
   11535 H           15.9510     5.4170   -55.4100 H             1 RES     
   11536 H           15.2860     4.2920   -54.4310 H             1 RES     
   11537 O            8.9130     5.4530   -59.1070 O             1 RES     
   11538 H            8.1510     5.1920   -58.5160 H             1 RES     
   11539 H            8.8070     6.4070   -59.3880 H             1 RES     
   11540 O            0.0650     3.8170   -52.6680 O             1 RES     
   11541 H           -0.7900     3.4180   -52.3380 H             1 RES     
   11542 H           -0.1320     4.4810   -53.3890 H             1 RES     
   11543 O            4.4290    31.0320   -64.0980 O             1 RES     
   11544 H            5.3190    31.4850   -64.0830 H             1 RES     
   11545 H            4.5510    30.0500   -63.9510 H             1 RES     
   11546 O            3.7000    30.6530   -62.0140 O             1 RES     
   11547 H            2.8880    30.1750   -62.3480 H             1 RES     
   11548 H            3.5720    31.6400   -62.1130 H             1 RES     
   11549 O           46.5360    39.3880   -58.2100 O             1 RES     
   11550 H           46.0740    38.6610   -58.7160 H             1 RES     
   11551 H           47.4910    39.1320   -58.0550 H             1 RES     
   11552 O           23.3770    28.3330   -53.6750 O             1 RES     
   11553 H           22.4380    28.3150   -54.0160 H             1 RES     
   11554 H           24.0080    28.4710   -54.4380 H             1 RES     
   11555 O           42.5810    30.4360   -50.4830 O             1 RES     
   11556 H           43.4160    30.0780   -50.9000 H             1 RES     
   11557 H           41.9040    29.7040   -50.4090 H             1 RES     
   11558 O           17.5100     9.2700   -58.2180 O             1 RES     
   11559 H           17.9320     8.8940   -59.0420 H             1 RES     
   11560 H           18.2140     9.6860   -57.6420 H             1 RES     
   11561 O            3.3390     0.0960   -57.2160 O             1 RES     
   11562 H            3.8070    -0.3320   -56.4440 H             1 RES     
   11563 H            2.3540     0.1050   -57.0470 H             1 RES     
   11564 O           37.6690    21.0760   -58.9330 O             1 RES     
   11565 H           38.6170    20.9350   -59.2160 H             1 RES     
   11566 H           37.6510    21.5390   -58.0460 H             1 RES     
   11567 O           -1.1790    16.6240   -51.3570 O             1 RES     
   11568 H           -2.1180    16.9460   -51.4770 H             1 RES     
   11569 H           -1.1780    15.6290   -51.2550 H             1 RES     
   11570 O           -3.3020    39.3440   -55.2010 O             1 RES     
   11571 H           -3.6750    40.1790   -54.7980 H             1 RES     
   11572 H           -3.9140    38.5770   -55.0070 H             1 RES     
   11573 O           29.9420    24.5860   -57.3820 O             1 RES     
   11574 H           29.9020    24.6160   -58.3800 H             1 RES     
   11575 H           29.8940    25.5170   -57.0170 H             1 RES     
   11576 O           41.2040    28.8170   -62.0380 O             1 RES     
   11577 H           40.7590    28.9120   -62.9280 H             1 RES     
   11578 H           41.3880    27.8500   -61.8590 H             1 RES     
   11579 O           48.9330    15.1090   -56.2580 O             1 RES     
   11580 H           49.6620    14.4500   -56.4410 H             1 RES     
   11581 H           49.2870    16.0380   -56.3680 H             1 RES     
   11582 O            3.2380     4.7470   -57.8870 O             1 RES     
   11583 H            4.1750     4.4880   -57.6540 H             1 RES     
   11584 H            2.6000     4.0940   -57.4770 H             1 RES     
   11585 O           35.2060    19.1080   -54.4440 O             1 RES     
   11586 H           34.8190    19.5520   -53.6370 H             1 RES     
   11587 H           35.4960    19.8050   -55.1010 H             1 RES     
   11588 O            2.0950    -1.2880   -54.4000 O             1 RES     
   11589 H            1.5120    -1.9550   -53.9360 H             1 RES     
   11590 H            1.7720    -1.1590   -55.3380 H             1 RES     
   11591 O           24.7490    -4.4070   -51.7700 O             1 RES     
   11592 H           24.9450    -5.0240   -51.0080 H             1 RES     
   11593 H           25.5460    -3.8280   -51.9440 H             1 RES     
   11594 O           23.7570    35.8740   -51.5420 O             1 RES     
   11595 H           22.8750    35.8140   -51.0760 H             1 RES     
   11596 H           23.9790    36.8340   -51.7140 H             1 RES     
   11597 O           46.9650    22.4030   -62.0310 O             1 RES     
   11598 H           46.1610    22.6730   -61.5020 H             1 RES     
   11599 H           47.2820    23.1800   -62.5750 H             1 RES     
   11600 O           39.7390     0.4400   -51.6640 O             1 RES     
   11601 H           38.8950    -0.0890   -51.7430 H             1 RES     
   11602 H           39.9950     0.7970   -52.5630 H             1 RES     
   11603 O           29.5040    19.3950   -50.8880 O             1 RES     
   11604 H           29.2810    20.3640   -50.9880 H             1 RES     
   11605 H           29.7020    19.0040   -51.7880 H             1 RES     
   11606 O            9.4040    -2.4670   -55.6840 O             1 RES     
   11607 H            8.9760    -3.3690   -55.7340 H             1 RES     
   11608 H            8.7050    -1.7600   -55.7880 H             1 RES     
   11609 O           18.2280    10.7090   -55.5290 O             1 RES     
   11610 H           17.3910    11.2400   -55.4010 H             1 RES     
   11611 H           18.1410     9.8310   -55.0580 H             1 RES     
   11612 O            4.0640    14.1000   -50.4080 O             1 RES     
   11613 H            3.6870    13.1770   -50.4800 H             1 RES     
   11614 H            3.3530    14.7690   -50.6240 H             1 RES     
   11615 O           22.5320    12.3310   -61.7530 O             1 RES     
   11616 H           23.4260    12.6770   -61.4690 H             1 RES     
   11617 H           22.1800    12.8900   -62.5040 H             1 RES     
   11618 O           13.4770    24.4460   -62.1310 O             1 RES     
   11619 H           13.7040    24.1580   -63.0600 H             1 RES     
   11620 H           13.8200    23.7700   -61.4780 H             1 RES     
   11621 O            2.5520     6.8500   -56.9460 O             1 RES     
   11622 H            1.8320     6.4000   -57.4730 H             1 RES     
   11623 H            2.1610     7.2410   -56.1130 H             1 RES     
   11624 O           39.0840    40.3540   -62.6910 O             1 RES     
   11625 H           39.8590    39.9780   -63.1980 H             1 RES     
   11626 H           38.2460    40.2310   -63.2230 H             1 RES     
   11627 O           35.5300    39.4340   -54.9400 O             1 RES     
   11628 H           35.8940    39.2610   -54.0260 H             1 RES     
   11629 H           36.2840    39.5030   -55.5930 H             1 RES     
   11630 O           43.7610    21.5180   -58.5020 O             1 RES     
   11631 H           42.7800    21.6340   -58.6520 H             1 RES     
   11632 H           43.9720    20.5440   -58.4130 H             1 RES     
   11633 O           48.6400    25.6230   -59.0450 O             1 RES     
   11634 H           48.2000    26.5140   -59.1490 H             1 RES     
   11635 H           48.2510    25.1490   -58.2550 H             1 RES     
   11636 O           45.7850    22.7300   -59.0730 O             1 RES     
   11637 H           45.9290    21.7580   -59.2580 H             1 RES     
   11638 H           46.6690    23.1970   -59.0390 H             1 RES     
   11639 O           48.5170    -5.7930   -61.2100 O             1 RES     
   11640 H           48.6440    -6.5290   -61.8740 H             1 RES     
   11641 H           48.5020    -4.9130   -61.6860 H             1 RES     
   11642 O            5.5580     6.2080   -55.2370 O             1 RES     
   11643 H            4.9290     6.8390   -55.6880 H             1 RES     
   11644 H            5.7050     6.5000   -54.2920 H             1 RES     
   11645 O           26.5880    24.1260   -62.9340 O             1 RES     
   11646 H           26.5570    24.0490   -61.9380 H             1 RES     
   11647 H           26.0680    23.3770   -63.3440 H             1 RES     
   11648 O           28.0070    38.6650   -58.3600 O             1 RES     
   11649 H           28.7000    38.9920   -57.7180 H             1 RES     
   11650 H           27.2060    38.3460   -57.8520 H             1 RES     
   11651 O           14.1110     1.0260   -61.7700 O             1 RES     
   11652 H           15.0230     0.8920   -62.1560 H             1 RES     
   11653 H           13.9400     2.0040   -61.6490 H             1 RES     
   11654 O           45.3540    40.1580   -60.4730 O             1 RES     
   11655 H           44.9530    40.3480   -59.5770 H             1 RES     
   11656 H           46.3340    40.3550   -60.4480 H             1 RES     
   11657 O           14.6640    32.3100   -58.5370 O             1 RES     
   11658 H           14.0740    33.0580   -58.2360 H             1 RES     
   11659 H           14.1170    31.4810   -58.6570 H             1 RES     
   11660 O           38.5810    24.1720   -59.1860 O             1 RES     
   11661 H           38.2530    23.3940   -59.7200 H             1 RES     
   11662 H           39.3320    24.6180   -59.6730 H             1 RES     
   11663 O           15.8940    27.5250   -62.5390 O             1 RES     
   11664 H           16.3680    27.7280   -63.3950 H             1 RES     
   11665 H           15.7110    26.5430   -62.4830 H             1 RES     
   11666 O            5.3770    39.1820   -55.6490 O             1 RES     
   11667 H            5.6590    40.0510   -56.0550 H             1 RES     
   11668 H            4.6620    38.7670   -56.2120 H             1 RES     
   11669 O           24.5700     6.0160   -51.0340 O             1 RES     
   11670 H           23.8280     6.3640   -50.4620 H             1 RES     
   11671 H           24.2210     5.2950   -51.6320 H             1 RES     
   11672 O           45.8040    -6.4730   -53.8940 O             1 RES     
   11673 H           45.1270    -5.8420   -53.5160 H             1 RES     
   11674 H           45.3870    -7.3730   -54.0230 H             1 RES     
   11675 O           28.8220    19.5280   -54.5830 O             1 RES     
   11676 H           28.5610    19.3050   -53.6440 H             1 RES     
   11677 H           28.3940    18.8780   -55.2120 H             1 RES     
   11678 O           20.4540     2.3690   -61.7550 O             1 RES     
   11679 H           19.5970     2.8140   -61.5000 H             1 RES     
   11680 H           20.2680     1.4350   -62.0600 H             1 RES     
   11681 O           -3.6750    -6.8650   -59.9870 O             1 RES     
   11682 H           -3.7710    -7.7080   -60.5150 H             1 RES     
   11683 H           -3.0530    -7.0200   -59.2190 H             1 RES     
   11684 O           32.3560     7.9780   -62.7850 O             1 RES     
   11685 H           32.1330     8.8810   -62.4190 H             1 RES     
   11686 H           33.3490     7.8710   -62.8290 H             1 RES     
   11687 O           18.6090     5.1880   -52.4460 O             1 RES     
   11688 H           18.9760     5.2480   -51.5180 H             1 RES     
   11689 H           19.1330     4.5160   -52.9700 H             1 RES     
   11690 O           -4.7260     9.7150   -59.2430 O             1 RES     
   11691 H           -5.0470    10.4350   -59.8580 H             1 RES     
   11692 H           -3.8550     9.9880   -58.8350 H             1 RES     
   11693 O           37.9760    17.8480   -58.4580 O             1 RES     
   11694 H           38.8470    18.1890   -58.1070 H             1 RES     
   11695 H           38.0860    16.9020   -58.7650 H             1 RES     
   11696 O           28.2800     5.8680   -61.5690 O             1 RES     
   11697 H           29.2200     6.1640   -61.7350 H             1 RES     
   11698 H           27.6570     6.6380   -61.7120 H             1 RES     
   11699 O            4.2200    12.7830   -60.0080 O             1 RES     
   11700 H            4.7380    12.2670   -60.6890 H             1 RES     
   11701 H            4.7780    12.9060   -59.1870 H             1 RES     
   11702 O           29.0180    36.1510   -58.2140 O             1 RES     
   11703 H           29.5120    35.2830   -58.2180 H             1 RES     
   11704 H           28.0330    35.9740   -58.1980 H             1 RES     
   11705 O           -1.8030    -5.6600   -55.3780 O             1 RES     
   11706 H           -0.9370    -5.6610   -54.8780 H             1 RES     
   11707 H           -1.8550    -4.8450   -55.9540 H             1 RES     
   11708 O           11.9040    31.1860   -59.6100 O             1 RES     
   11709 H           12.0170    32.0070   -59.0500 H             1 RES     
   11710 H           11.1050    30.6740   -59.2940 H             1 RES     
   11711 O           15.4680    24.0120   -55.9430 O             1 RES     
   11712 H           14.7540    23.3140   -55.8880 H             1 RES     
   11713 H           16.3580    23.5710   -56.0550 H             1 RES     
   11714 O           38.5170    34.1390   -55.1260 O             1 RES     
   11715 H           38.7920    33.2290   -54.8200 H             1 RES     
   11716 H           39.3010    34.7580   -55.0820 H             1 RES     
   11717 O           47.6170    -0.6700   -53.9710 O             1 RES     
   11718 H           48.6000    -0.8400   -54.0250 H             1 RES     
   11719 H           47.4460     0.3150   -54.0000 H             1 RES     
   11720 O           32.8180    12.1480   -55.3890 O             1 RES     
   11721 H           32.9070    12.9110   -56.0280 H             1 RES     
   11722 H           31.8530    12.0070   -55.1680 H             1 RES     
   11723 O           -5.4310    -2.0770   -58.4550 O             1 RES     
   11724 H           -5.5380    -3.0710   -58.4780 H             1 RES     
   11725 H           -6.1140    -1.6540   -59.0510 H             1 RES     
   11726 O           45.8080    36.4000   -57.7960 O             1 RES     
   11727 H           46.1490    36.4630   -58.7340 H             1 RES     
   11728 H           45.0330    37.0220   -57.6810 H             1 RES     
   11729 O            3.4360    35.7640   -57.9570 O             1 RES     
   11730 H            4.3770    35.6010   -57.6650 H             1 RES     
   11731 H            3.1660    35.0660   -58.6210 H             1 RES     
   11732 O           46.2890     4.4050   -60.8500 O             1 RES     
   11733 H           45.8760     5.3060   -60.9740 H             1 RES     
   11734 H           45.5850     3.7000   -60.9350 H             1 RES     
   11735 O           33.2110     4.1220   -57.1650 O             1 RES     
   11736 H           32.2470     4.3380   -57.3150 H             1 RES     
   11737 H           33.3470     3.1340   -57.2310 H             1 RES     
   11738 O           39.2930    13.3000   -57.6430 O             1 RES     
   11739 H           39.7300    13.9540   -58.2590 H             1 RES     
   11740 H           38.6560    13.7820   -57.0410 H             1 RES     
   11741 O           27.3920    37.7510   -51.9590 O             1 RES     
   11742 H           27.7220    38.6930   -51.9070 H             1 RES     
   11743 H           26.4830    37.6920   -51.5450 H             1 RES     
   11744 O           -5.5470    23.4360   -55.8380 O             1 RES     
   11745 H           -6.1140    23.6930   -56.6200 H             1 RES     
   11746 H           -6.1070    22.9550   -55.1640 H             1 RES     
   11747 O           51.0710    11.8040   -64.0880 O             1 RES     
   11748 H           50.7140    12.7380   -64.0840 H             1 RES     
   11749 H           50.3100    11.1560   -64.0960 H             1 RES     
   11750 O           48.7100     9.2490   -56.7980 O             1 RES     
   11751 H           48.9390     8.3320   -57.1220 H             1 RES     
   11752 H           47.7430     9.4340   -56.9770 H             1 RES     
   11753 O           16.0030    26.6910   -53.8220 O             1 RES     
   11754 H           15.6660    27.6010   -53.5830 H             1 RES     
   11755 H           15.2500    26.0340   -53.7740 H             1 RES     
   11756 O           46.5720    13.2740   -56.9620 O             1 RES     
   11757 H           45.9830    14.0670   -56.8110 H             1 RES     
   11758 H           47.5280    13.5660   -56.9810 H             1 RES     
   11759 O           46.4300     9.0050   -60.1480 O             1 RES     
   11760 H           47.0210     8.1990   -60.1580 H             1 RES     
   11761 H           46.3280     9.3320   -59.2090 H             1 RES     
   11762 O           24.3430    25.8140   -55.2760 O             1 RES     
   11763 H           24.5720    25.2390   -54.4910 H             1 RES     
   11764 H           25.1010    26.4390   -55.4640 H             1 RES     
   11765 O            7.9480    11.4690   -56.8710 O             1 RES     
   11766 H            8.1960    10.6230   -56.4000 H             1 RES     
   11767 H            8.2390    11.4170   -57.8270 H             1 RES     
   11768 O           28.6480    32.5090   -55.6520 O             1 RES     
   11769 H           28.2150    32.9580   -54.8710 H             1 RES     
   11770 H           28.1350    32.7190   -56.4850 H             1 RES     
   11771 O            6.7820    -2.8580   -52.2410 O             1 RES     
   11772 H            6.6860    -3.8340   -52.4320 H             1 RES     
   11773 H            7.7340    -2.6550   -52.0100 H             1 RES     
   11774 O           46.4700     2.4560   -62.9810 O             1 RES     
   11775 H           46.1480     1.7950   -62.3040 H             1 RES     
   11776 H           47.0070     3.1660   -62.5260 H             1 RES     
   11777 O           14.0210    -0.2380   -56.1660 O             1 RES     
   11778 H           14.6660     0.4650   -55.8710 H             1 RES     
   11779 H           14.5070    -0.9390   -56.6900 H             1 RES     
   11780 O            3.8890    27.9440   -52.7350 O             1 RES     
   11781 H            4.0430    26.9970   -53.0150 H             1 RES     
   11782 H            4.4290    28.5560   -53.3140 H             1 RES     
   11783 O           41.3120    18.3540   -59.5360 O             1 RES     
   11784 H           42.2380    18.0820   -59.7930 H             1 RES     
   11785 H           40.7810    17.5430   -59.2890 H             1 RES     
   11786 O           -5.8350    23.8950   -60.5330 O             1 RES     
   11787 H           -4.8570    24.0710   -60.4200 H             1 RES     
   11788 H           -6.1130    24.1430   -61.4610 H             1 RES     
   11789 O           18.8480    -7.3560   -56.0140 O             1 RES     
   11790 H           19.1960    -7.7080   -55.1460 H             1 RES     
   11791 H           19.4960    -6.6910   -56.3880 H             1 RES     
   11792 O           43.6120    -2.4590   -56.0890 O             1 RES     
   11793 H           42.9990    -2.8480   -56.7760 H             1 RES     
   11794 H           44.3410    -1.9470   -56.5430 H             1 RES     
   11795 O           40.7420    -0.4900   -58.1240 O             1 RES     
   11796 H           39.8450    -0.4210   -58.5600 H             1 RES     
   11797 H           41.3900    -0.9120   -58.7590 H             1 RES     
   11798 O            5.3460     9.3250   -57.7190 O             1 RES     
   11799 H            5.0340     9.5720   -58.6360 H             1 RES     
   11800 H            4.8530     8.5130   -57.4060 H             1 RES     
   11801 O           10.7180    -7.0810   -60.3640 O             1 RES     
   11802 H           10.5870    -6.2210   -59.8730 H             1 RES     
   11803 H           11.4960    -6.9940   -60.9870 H             1 RES     
   11804 O           22.6730    34.2400   -57.7980 O             1 RES     
   11805 H           21.7770    33.8000   -57.8500 H             1 RES     
   11806 H           22.5610    35.2320   -57.8550 H             1 RES     
   11807 O           -1.6590    32.4210   -54.2200 O             1 RES     
   11808 H           -2.6160    32.1360   -54.2590 H             1 RES     
   11809 H           -1.6100    33.4200   -54.1980 H             1 RES     
   11810 O           46.4110     3.8480   -58.2180 O             1 RES     
   11811 H           45.9680     4.7430   -58.1830 H             1 RES     
   11812 H           47.2280     3.8570   -57.6400 H             1 RES     
   11813 O           13.1830    36.7540   -53.0450 O             1 RES     
   11814 H           14.0840    36.5000   -52.6950 H             1 RES     
   11815 H           12.9970    37.7120   -52.8260 H             1 RES     
   11816 O           37.1260     1.7250   -63.5540 O             1 RES     
   11817 H           36.7670     1.1900   -62.7900 H             1 RES     
   11818 H           37.6970     2.4670   -63.2040 H             1 RES     
   11819 O           27.6870    17.1590   -63.2420 O             1 RES     
   11820 H           27.2440    18.0400   -63.4050 H             1 RES     
   11821 H           27.4490    16.5250   -63.9790 H             1 RES     
   11822 O           38.5720    16.2720   -56.2850 O             1 RES     
   11823 H           37.7610    15.6960   -56.3750 H             1 RES     
   11824 H           39.3880    15.6960   -56.2390 H             1 RES     
   11825 O           40.5700     8.6800   -58.9700 O             1 RES     
   11826 H           41.5370     8.7290   -59.2180 H             1 RES     
   11827 H           40.3240     7.7320   -58.7700 H             1 RES     
   11828 O           45.4700    10.9480   -62.5800 O             1 RES     
   11829 H           46.2170    10.2910   -62.6770 H             1 RES     
   11830 H           45.6670    11.7620   -63.1260 H             1 RES     
   11831 O           11.3580    36.0890   -60.6610 O             1 RES     
   11832 H           10.3940    36.2240   -60.8890 H             1 RES     
   11833 H           11.5160    35.1270   -60.4370 H             1 RES     
   11834 O           42.3640    32.7380   -57.4090 O             1 RES     
   11835 H           43.0640    32.6570   -56.7010 H             1 RES     
   11836 H           42.0640    31.8260   -57.6900 H             1 RES     
   11837 O           32.8570    23.6480   -51.6360 O             1 RES     
   11838 H           32.1020    24.2160   -51.3110 H             1 RES     
   11839 H           33.2120    23.0990   -50.8800 H             1 RES     
   11840 O           45.9660    10.7350   -54.0700 O             1 RES     
   11841 H           45.9520    11.7260   -53.9390 H             1 RES     
   11842 H           45.1240    10.4460   -54.5250 H             1 RES     
   11843 O           42.9560    12.5240   -58.7850 O             1 RES     
   11844 H           42.2570    13.1590   -58.4560 H             1 RES     
   11845 H           43.8320    13.0010   -58.8610 H             1 RES     
   11846 O           22.0750    -5.4550   -53.8600 O             1 RES     
   11847 H           21.9980    -6.4220   -53.6180 H             1 RES     
   11848 H           22.8830    -5.3180   -54.4340 H             1 RES     
   11849 O           10.5500    12.2360   -60.8750 O             1 RES     
   11850 H            9.6910    12.7230   -61.0310 H             1 RES     
   11851 H           11.1580    12.3730   -61.6570 H             1 RES     
   11852 O           34.1950    -4.2690   -60.1960 O             1 RES     
   11853 H           34.3250    -3.5300   -60.8560 H             1 RES     
   11854 H           33.3470    -4.7570   -60.4040 H             1 RES     
   11855 O           43.8210    35.1850   -55.6470 O             1 RES     
   11856 H           44.1500    35.0740   -54.7090 H             1 RES     
   11857 H           42.9850    34.6500   -55.7730 H             1 RES     
   11858 O           31.1220    -4.5060   -54.5590 O             1 RES     
   11859 H           30.6920    -3.7470   -55.0460 H             1 RES     
   11860 H           31.7880    -4.9520   -55.1570 H             1 RES     
   11861 O           41.7720    26.1260   -63.9200 O             1 RES     
   11862 H           40.9830    25.5160   -63.9700 H             1 RES     
   11863 H           41.4600    27.0770   -63.9170 H             1 RES     
   11864 O           16.6980    28.9110   -59.7650 O             1 RES     
   11865 H           17.6890    29.0130   -59.6830 H             1 RES     
   11866 H           16.4480    27.9540   -59.6210 H             1 RES     
   11867 O           42.6240    -3.3070   -52.5850 O             1 RES     
   11868 H           41.7650    -2.8670   -52.8460 H             1 RES     
   11869 H           43.3490    -3.0240   -53.2140 H             1 RES     
   11870 O           45.1420    16.7640   -50.9740 O             1 RES     
   11871 H           44.6290    16.8270   -51.8300 H             1 RES     
   11872 H           44.9470    17.5650   -50.4080 H             1 RES     
   11873 O            9.6050    -4.1090   -52.3110 O             1 RES     
   11874 H            8.7740    -4.4530   -52.7460 H             1 RES     
   11875 H            9.8350    -4.6870   -51.5280 H             1 RES     
   11876 O           33.7130     5.8090   -63.5020 O             1 RES     
   11877 H           34.4520     6.1240   -64.0970 H             1 RES     
   11878 H           34.0980     5.4520   -62.6510 H             1 RES     
   11879 O           24.6120    12.0690   -52.5640 O             1 RES     
   11880 H           24.8620    11.1020   -52.5660 H             1 RES     
   11881 H           25.4420    12.6280   -52.5730 H             1 RES     
   11882 O           -2.9040    -3.7820   -53.2150 O             1 RES     
   11883 H           -2.4370    -4.4200   -52.6040 H             1 RES     
   11884 H           -2.9080    -4.1530   -54.1440 H             1 RES     
   11885 O            4.7250    -5.3480   -54.7160 O             1 RES     
   11886 H            3.7310    -5.4460   -54.6940 H             1 RES     
   11887 H            5.1500    -6.2540   -54.7270 H             1 RES     
   11888 O           33.1790    -3.6910   -53.3870 O             1 RES     
   11889 H           33.8590    -4.2070   -52.8670 H             1 RES     
   11890 H           32.8920    -2.8910   -52.8590 H             1 RES     
   11891 O           10.6840     1.8340   -52.9760 O             1 RES     
   11892 H           11.5680     2.1630   -52.6440 H             1 RES     
   11893 H           10.5100     0.9190   -52.6120 H             1 RES     
   11894 O           39.9390    -7.2160   -61.9790 O             1 RES     
   11895 H           40.3680    -6.4270   -62.4160 H             1 RES     
   11896 H           40.3040    -7.3240   -61.0530 H             1 RES     
   11897 O           37.4730    28.4590   -61.9670 O             1 RES     
   11898 H           37.6590    27.5510   -62.3420 H             1 RES     
   11899 H           38.3370    28.9350   -61.8000 H             1 RES     
   11900 O            1.8940    -5.4720   -61.8530 O             1 RES     
   11901 H            1.7000    -4.4910   -61.8420 H             1 RES     
   11902 H            2.7880    -5.6310   -62.2710 H             1 RES     
   11903 O           -0.6630    11.3160   -51.6900 O             1 RES     
   11904 H           -0.3580    11.1670   -50.7510 H             1 RES     
   11905 H            0.1300    11.3530   -52.2980 H             1 RES     
   11906 O           41.2190    -5.2440   -57.5370 O             1 RES     
   11907 H           41.9520    -5.6690   -58.0680 H             1 RES     
   11908 H           40.8450    -5.9120   -56.8920 H             1 RES     
   11909 O           12.7160    22.6060   -53.7020 O             1 RES     
   11910 H           13.5390    23.1620   -53.5980 H             1 RES     
   11911 H           12.8250    21.7500   -53.1970 H             1 RES     
   11912 O           13.4070    23.7870   -59.3170 O             1 RES     
   11913 H           13.1390    22.8250   -59.3520 H             1 RES     
   11914 H           12.5910    24.3580   -59.2230 H             1 RES     
   11915 O           -4.1700    16.6550   -60.3500 O             1 RES     
   11916 H           -5.1680    16.6150   -60.3920 H             1 RES     
   11917 H           -3.8020    15.7300   -60.2520 H             1 RES     
   11918 O            4.7760    21.9720   -60.5860 O             1 RES     
   11919 H            4.8070    22.9560   -60.4120 H             1 RES     
   11920 H            3.8630    21.7180   -60.9080 H             1 RES     
   11921 O            5.7850    26.6840   -61.5270 O             1 RES     
   11922 H            5.9090    27.5550   -62.0010 H             1 RES     
   11923 H            5.4720    25.9920   -62.1770 H             1 RES     
   11924 O            9.4870     3.7730   -63.0530 O             1 RES     
   11925 H           10.1910     3.0980   -63.2690 H             1 RES     
   11926 H            8.6190     3.3060   -62.8810 H             1 RES     
   11927 O           -5.3010    35.3400   -63.0530 O             1 RES     
   11928 H           -4.6770    34.7260   -62.5720 H             1 RES     
   11929 H           -6.1130    35.4990   -62.4910 H             1 RES     
   11930 O           50.7520    10.4040   -52.9800 O             1 RES     
   11931 H           49.7660    10.2420   -53.0010 H             1 RES     
   11932 H           51.2350     9.5440   -53.1450 H             1 RES     
   11933 O           15.4300     0.2850   -59.1400 O             1 RES     
   11934 H           15.1260     1.1790   -58.8130 H             1 RES     
   11935 H           16.3000     0.3850   -59.6230 H             1 RES     
   11936 O           50.3410    13.0760   -53.9450 O             1 RES     
   11937 H           51.3110    12.8840   -54.0870 H             1 RES     
   11938 H           50.1920    14.0650   -53.9540 H             1 RES     
   11939 O            5.6780    -4.8640   -50.4220 O             1 RES     
   11940 H            5.1920    -3.9910   -50.4390 H             1 RES     
   11941 H            6.6640    -4.6980   -50.4090 H             1 RES     
   11942 O           16.5570    33.1940   -64.0930 O             1 RES     
   11943 H           16.9610    34.0050   -63.6730 H             1 RES     
   11944 H           16.6420    32.4160   -63.4690 H             1 RES     
   11945 O           -2.0760     9.2380   -63.9180 O             1 RES     
   11946 H           -1.2190     8.8020   -63.6470 H             1 RES     
   11947 H           -2.7670     8.5360   -64.0950 H             1 RES     
   11948 O           51.3200    23.4550   -59.4540 O             1 RES     
   11949 H           52.0480    24.0610   -59.1350 H             1 RES     
   11950 H           50.7010    23.9640   -60.0530 H             1 RES     
   11951 O           46.9910    17.8460   -51.4730 O             1 RES     
   11952 H           47.8180    17.3050   -51.6230 H             1 RES     
   11953 H           47.1160    18.7610   -51.8560 H             1 RES     
   11954 O           25.2710    15.9290   -60.3630 O             1 RES     
   11955 H           25.4610    16.8390   -60.7310 H             1 RES     
   11956 H           25.7270    15.8240   -59.4790 H             1 RES     
   11957 O           14.4180    20.0100   -51.4870 O             1 RES     
   11958 H           13.4270    20.0570   -51.6070 H             1 RES     
   11959 H           14.7050    19.0530   -51.4520 H             1 RES     
   11960 O           -0.9810    30.7250   -56.0860 O             1 RES     
   11961 H           -1.7790    30.4680   -56.6300 H             1 RES     
   11962 H           -0.8460    31.7150   -56.1390 H             1 RES     
   11963 O           -5.5000    -6.8120   -62.7700 O             1 RES     
   11964 H           -4.7250    -7.1240   -63.3190 H             1 RES     
   11965 H           -6.1140    -7.5820   -62.5910 H             1 RES     
   11966 O           21.9540    33.1700   -59.9500 O             1 RES     
   11967 H           21.1890    32.7200   -60.4100 H             1 RES     
   11968 H           22.5480    32.4800   -59.5370 H             1 RES     
   11969 O           44.0810     3.6470   -51.2340 O             1 RES     
   11970 H           44.7690     4.3460   -51.0400 H             1 RES     
   11971 H           43.5430     3.4700   -50.4100 H             1 RES     
   11972 O            0.6290     1.8920   -58.9600 O             1 RES     
   11973 H            1.0510     1.5480   -58.1220 H             1 RES     
   11974 H            0.6240     1.1700   -59.6520 H             1 RES     
   11975 O           -2.4100    31.1240   -60.3320 O             1 RES     
   11976 H           -2.1630    32.0910   -60.3800 H             1 RES     
   11977 H           -1.7380    30.6350   -59.7760 H             1 RES     
   11978 O            4.6670    28.7040   -60.5840 O             1 RES     
   11979 H            3.8450    28.5350   -61.1270 H             1 RES     
   11980 H            5.2230    29.4070   -61.0300 H             1 RES     
   11981 O           30.3160    11.9140   -52.3230 O             1 RES     
   11982 H           29.8540    11.0280   -52.3020 H             1 RES     
   11983 H           29.6380    12.6460   -52.2540 H             1 RES     
   11984 O            6.9780    11.8820   -54.9400 O             1 RES     
   11985 H            6.1720    12.4010   -55.2200 H             1 RES     
   11986 H            6.7250    10.9260   -54.7910 H             1 RES     
   11987 O           40.8880    -4.5790   -61.2330 O             1 RES     
   11988 H           40.2260    -3.9640   -61.6600 H             1 RES     
   11989 H           41.6840    -4.6800   -61.8300 H             1 RES     
   11990 O           33.9030     3.8670   -50.9610 O             1 RES     
   11991 H           34.2920     3.0890   -51.4540 H             1 RES     
   11992 H           34.5430     4.6350   -50.9920 H             1 RES     
   11993 O           30.4950    -1.0240   -59.0570 O             1 RES     
   11994 H           29.7330    -0.4060   -59.2470 H             1 RES     
   11995 H           30.4660    -1.7950   -59.6940 H             1 RES     
   11996 O           22.3530     1.4240   -60.0780 O             1 RES     
   11997 H           22.1710     1.0820   -60.9990 H             1 RES     
   11998 H           21.4980     1.4600   -59.5600 H             1 RES     
   11999 O           13.6750    19.1030   -57.3030 O             1 RES     
   12000 H           13.1770    18.3590   -57.7480 H             1 RES     
   12001 H           14.4120    18.7240   -56.7430 H             1 RES     
   12002 O           44.3300    27.3000   -62.1890 O             1 RES     
   12003 H           43.7630    27.3030   -61.3660 H             1 RES     
   12004 H           43.7680    27.0650   -62.9820 H             1 RES     
   12005 O           12.8690    14.7500   -60.7720 O             1 RES     
   12006 H           12.0740    14.4200   -60.2630 H             1 RES     
   12007 H           13.5400    15.1280   -60.1350 H             1 RES     
   12008 O           30.2850    30.3090   -54.9350 O             1 RES     
   12009 H           30.2640    30.9480   -54.1670 H             1 RES     
   12010 H           30.6070    29.4170   -54.6180 H             1 RES     
   12011 O           13.0070    16.9250   -55.8090 O             1 RES     
   12012 H           12.0130    16.9930   -55.7350 H             1 RES     
   12013 H           13.4350    17.5510   -55.1580 H             1 RES     
   12014 O           19.9520    30.9670   -62.9880 O             1 RES     
   12015 H           20.9090    30.9740   -63.2750 H             1 RES     
   12016 H           19.5330    30.0950   -63.2440 H             1 RES     
   12017 O           48.2590     6.0550   -59.0210 O             1 RES     
   12018 H           47.4630     5.6810   -59.4970 H             1 RES     
   12019 H           48.2470     5.7590   -58.0660 H             1 RES     
   12020 O           18.2380    25.8050   -57.2240 O             1 RES     
   12021 H           17.4740    25.1840   -57.0530 H             1 RES     
   12022 H           17.8870    26.6950   -57.5170 H             1 RES     
   12023 O           -1.4550    13.8040   -57.3380 O             1 RES     
   12024 H           -1.3920    14.7430   -57.0020 H             1 RES     
   12025 H           -0.6590    13.2840   -57.0250 H             1 RES     
   12026 O           -3.1160    11.4550   -57.3710 O             1 RES     
   12027 H           -3.2930    12.2930   -57.8860 H             1 RES     
   12028 H           -3.2420    11.6310   -56.3950 H             1 RES     
   12029 O           49.5630    35.4110   -51.4620 O             1 RES     
   12030 H           49.9000    34.5040   -51.7140 H             1 RES     
   12031 H           48.6190    35.5150   -51.7760 H             1 RES     
   12032 O           29.2570    36.6740   -54.4130 O             1 RES     
   12033 H           29.8510    37.4610   -54.2540 H             1 RES     
   12034 H           28.3150    36.9850   -54.5360 H             1 RES     
   12035 O           15.4080    -4.0880   -64.0300 O             1 RES     
   12036 H           16.1810    -4.6610   -63.7610 H             1 RES     
   12037 H           14.7370    -4.0640   -63.2890 H             1 RES     
   12038 O           35.8210    35.3590   -55.3580 O             1 RES     
   12039 H           35.5640    36.2560   -55.7160 H             1 RES     
   12040 H           35.5950    35.3110   -54.3850 H             1 RES     
   12041 O           13.5810    28.6730   -60.0680 O             1 RES     
   12042 H           14.2540    28.5930   -60.8020 H             1 RES     
   12043 H           13.6290    29.5890   -59.6690 H             1 RES     
   12044 O            4.4900    18.0670   -59.8340 O             1 RES     
   12045 H            5.4110    17.7330   -59.6370 H             1 RES     
   12046 H            3.8160    17.4110   -59.4930 H             1 RES     
   12047 O           23.3830    28.2470   -56.8750 O             1 RES     
   12048 H           22.8580    27.7640   -56.1760 H             1 RES     
   12049 H           23.3710    27.7210   -57.7260 H             1 RES     
   12050 O           24.1440    24.1660   -62.6270 O             1 RES     
   12051 H           24.0320    24.1570   -61.6340 H             1 RES     
   12052 H           23.2600    23.9970   -63.0650 H             1 RES     
   12053 O           13.4530    26.5130   -60.5190 O             1 RES     
   12054 H           14.2600    25.9700   -60.7500 H             1 RES     
   12055 H           12.7070    26.2860   -61.1460 H             1 RES     
   12056 O           49.6170     9.4900   -58.9710 O             1 RES     
   12057 H           48.6990     9.8810   -58.9090 H             1 RES     
   12058 H           50.2960    10.2100   -58.8290 H             1 RES     
   12059 O           22.5050     8.7860   -53.8750 O             1 RES     
   12060 H           22.6580     9.6800   -53.4570 H             1 RES     
   12061 H           23.3500     8.4700   -54.3080 H             1 RES     
   12062 O           -3.7860    24.6580   -57.2630 O             1 RES     
   12063 H           -2.8950    24.3080   -56.9760 H             1 RES     
   12064 H           -4.2430    25.0870   -56.4830 H             1 RES     
   12065 O            4.2470    14.1460   -54.1290 O             1 RES     
   12066 H            3.3050    13.9990   -54.4300 H             1 RES     
   12067 H            4.2500    14.4440   -53.1750 H             1 RES     
   12068 O           25.9880    19.7710   -61.2360 O             1 RES     
   12069 H           26.3020    18.8240   -61.1800 H             1 RES     
   12070 H           26.7230    20.3460   -61.5950 H             1 RES     
   12071 O           27.5500    -2.0050   -51.2420 O             1 RES     
   12072 H           27.0240    -1.8340   -50.4090 H             1 RES     
   12073 H           27.8190    -1.1330   -51.6520 H             1 RES     
   12074 O            1.5850    37.0240   -57.4110 O             1 RES     
   12075 H            2.2050    37.7920   -57.2510 H             1 RES     
   12076 H            0.7460    37.3570   -57.8420 H             1 RES     
   12077 O           37.4740    32.0470   -52.6720 O             1 RES     
   12078 H           37.2150    32.2260   -51.7230 H             1 RES     
   12079 H           37.3240    32.8700   -53.2200 H             1 RES     
   12080 O           26.2050    14.0550   -63.2970 O             1 RES     
   12081 H           25.7710    13.3360   -62.7560 H             1 RES     
   12082 H           27.1510    14.1770   -62.9950 H             1 RES     
   12083 O           -4.7740    -7.5920   -57.4750 O             1 RES     
   12084 H           -4.9170    -6.7180   -57.9370 H             1 RES     
   12085 H           -3.8030    -7.7050   -57.2670 H             1 RES     
   12086 O           41.9970    26.1770   -56.2820 O             1 RES     
   12087 H           41.2890    26.7890   -56.6330 H             1 RES     
   12088 H           41.7070    25.2280   -56.4010 H             1 RES     
   12089 O           12.0860    32.1480   -53.5160 O             1 RES     
   12090 H           11.5870    32.0140   -52.6610 H             1 RES     
   12091 H           11.4370    32.2560   -54.2690 H             1 RES     
   12092 O           49.2670    -6.0980   -63.9400 O             1 RES     
   12093 H           49.7590    -5.3060   -63.5810 H             1 RES     
   12094 H           48.3100    -5.8540   -64.0970 H             1 RES     
   12095 O           44.5640    19.0520   -60.9680 O             1 RES     
   12096 H           44.1250    19.8060   -60.4790 H             1 RES     
   12097 H           43.8730    18.3800   -61.2350 H             1 RES     
   12098 O           15.6440    18.5690   -53.4240 O             1 RES     
   12099 H           15.1450    19.2740   -53.9270 H             1 RES     
   12100 H           15.7330    17.7520   -53.9940 H             1 RES     
   12101 O            7.9890    32.6460   -60.8320 O             1 RES     
   12102 H            8.5740    31.8810   -61.1010 H             1 RES     
   12103 H            8.5360    33.4820   -60.7790 H             1 RES     
   12104 O            3.8640    17.6890   -50.7520 O             1 RES     
   12105 H            4.5070    18.4500   -50.6700 H             1 RES     
   12106 H            3.9440    17.2800   -51.6610 H             1 RES     
   12107 O           -2.8170     3.4860   -61.9850 O             1 RES     
   12108 H           -2.0690     4.1490   -61.9860 H             1 RES     
   12109 H           -3.5500     3.8100   -61.3860 H             1 RES     
   12110 O            9.2300    23.6100   -62.8610 O             1 RES     
   12111 H            8.6480    23.2450   -63.5870 H             1 RES     
   12112 H            8.8960    23.2920   -61.9740 H             1 RES     
   12113 O           -1.0720    23.9100   -50.8450 O             1 RES     
   12114 H           -1.5890    23.0930   -51.0960 H             1 RES     
   12115 H           -1.4710    24.7090   -51.2960 H             1 RES     
   12116 O           18.2990     1.0730   -61.1480 O             1 RES     
   12117 H           17.7600     1.7110   -60.5980 H             1 RES     
   12118 H           18.1020     0.1360   -60.8610 H             1 RES     
   12119 O           44.7640    15.8610   -62.0280 O             1 RES     
   12120 H           43.9490    16.2050   -61.5610 H             1 RES     
   12121 H           45.5820    16.1640   -61.5390 H             1 RES     
   12122 O           15.2810     5.6680   -52.7150 O             1 RES     
   12123 H           14.2860     5.5830   -52.7390 H             1 RES     
   12124 H           15.5450     6.2940   -51.9810 H             1 RES     
   12125 O           42.7500    21.1650   -54.3050 O             1 RES     
   12126 H           41.7530    21.1990   -54.3590 H             1 RES     
   12127 H           43.1160    22.0950   -54.2900 H             1 RES     
   12128 O           32.0660    28.0460   -53.4270 O             1 RES     
   12129 H           31.1810    27.5860   -53.4950 H             1 RES     
   12130 H           32.7920    27.3630   -53.3450 H             1 RES     
   12131 O           39.1740     8.8960   -53.3670 O             1 RES     
   12132 H           38.6840     9.7640   -53.2980 H             1 RES     
   12133 H           38.6650     8.2710   -53.9580 H             1 RES     
   12134 O           19.5820    -1.9060   -59.3550 O             1 RES     
   12135 H           19.7280    -2.5410   -58.5970 H             1 RES     
   12136 H           19.1360    -2.3860   -60.1110 H             1 RES     
   12137 O            1.8770    36.9910   -50.9700 O             1 RES     
   12138 H            1.9110    36.8070   -51.9520 H             1 RES     
   12139 H            2.0750    36.1500   -50.4660 H             1 RES     
   12140 O           23.6710     0.0000   -50.8700 O             1 RES     
   12141 H           23.5770     0.1920   -51.8470 H             1 RES     
   12142 H           22.8030     0.1820   -50.4090 H             1 RES     
   12143 O           36.1130    35.0340   -52.0340 O             1 RES     
   12144 H           35.2310    35.4910   -52.1430 H             1 RES     
   12145 H           35.9690    34.0490   -51.9370 H             1 RES     
   12146 O           48.1540    26.8000   -52.9810 O             1 RES     
   12147 H           47.4750    27.4930   -53.2190 H             1 RES     
   12148 H           47.6930    25.9330   -52.7910 H             1 RES     
   12149 O           25.1440    34.5890   -63.7020 O             1 RES     
   12150 H           26.0550    34.7020   -64.0980 H             1 RES     
   12151 H           24.5340    35.2960   -64.0610 H             1 RES     
   12152 O           27.2320    38.8470   -54.0490 O             1 RES     
   12153 H           26.7340    39.0170   -54.8980 H             1 RES     
   12154 H           28.1750    39.1680   -54.1440 H             1 RES     
   12155 O           -1.5560     3.0180   -63.8110 O             1 RES     
   12156 H           -1.1080     3.8640   -64.0970 H             1 RES     
   12157 H           -0.8730     2.3840   -63.4480 H             1 RES     
   12158 O           33.2130     5.0960   -59.1400 O             1 RES     
   12159 H           32.3040     5.0620   -59.5530 H             1 RES     
   12160 H           33.3740     6.0080   -58.7610 H             1 RES     
   12161 O            8.5400    20.7710   -57.7750 O             1 RES     
   12162 H            9.2020    21.5200   -57.7880 H             1 RES     
   12163 H            7.6140    21.1450   -57.7090 H             1 RES     
   12164 O           37.6720    36.0740   -54.4080 O             1 RES     
   12165 H           38.1760    36.7000   -55.0010 H             1 RES     
   12166 H           38.0500    36.1140   -53.4830 H             1 RES     
   12167 O           34.3090    29.5350   -54.3150 O             1 RES     
   12168 H           34.4820    28.5620   -54.1710 H             1 RES     
   12169 H           33.3290    29.6840   -54.4490 H             1 RES     
   12170 O           28.4930     3.1410   -52.9600 O             1 RES     
   12171 H           28.9400     2.6530   -53.7090 H             1 RES     
   12172 H           28.8010     4.0930   -52.9510 H             1 RES     
   12173 O           14.7740    -4.9330   -60.1690 O             1 RES     
   12174 H           15.1170    -4.2280   -59.5490 H             1 RES     
   12175 H           13.8730    -5.2390   -59.8620 H             1 RES     
   12176 O           45.1620    18.2840   -57.7320 O             1 RES     
   12177 H           45.2140    17.3610   -57.3530 H             1 RES     
   12178 H           45.4410    18.9470   -57.0370 H             1 RES     
   12179 O           46.1370     1.4520   -52.2980 O             1 RES     
   12180 H           47.0910     1.7430   -52.3640 H             1 RES     
   12181 H           45.5750     2.2170   -51.9830 H             1 RES     
   12182 O           21.3270     8.6170   -55.9920 O             1 RES     
   12183 H           21.7470     7.7170   -56.1030 H             1 RES     
   12184 H           20.3420     8.5110   -55.8530 H             1 RES     
   12185 O           40.3640    14.1430   -61.0740 O             1 RES     
   12186 H           40.8910    13.3370   -61.3420 H             1 RES     
   12187 H           39.6290    14.2960   -61.7350 H             1 RES     
   12188 O           -1.7180     1.0100   -59.9620 O             1 RES     
   12189 H           -1.2820     0.3190   -60.5380 H             1 RES     
   12190 H           -1.3700     1.9160   -60.2070 H             1 RES     
   12191 O           48.7340    12.1830   -62.9550 O             1 RES     
   12192 H           48.6530    13.1170   -63.3000 H             1 RES     
   12193 H           47.8660    11.7030   -63.0850 H             1 RES     
   12194 O           49.3860    32.2790   -53.3730 O             1 RES     
   12195 H           50.1760    32.8380   -53.1230 H             1 RES     
   12196 H           49.6020    31.3130   -53.2310 H             1 RES     
   12197 O           43.6790    27.9010   -51.0710 O             1 RES     
   12198 H           44.4170    27.2490   -50.8980 H             1 RES     
   12199 H           42.9420    27.7550   -50.4110 H             1 RES     
   12200 O           20.6730    38.7850   -61.4010 O             1 RES     
   12201 H           21.2190    39.6180   -61.4830 H             1 RES     
   12202 H           19.7060    39.0270   -61.3090 H             1 RES     
   12203 O            8.8820     1.5200   -60.2900 O             1 RES     
   12204 H            9.5470     2.2420   -60.4770 H             1 RES     
   12205 H            9.3590     0.6980   -59.9800 H             1 RES     
   12206 O           51.2980    -5.3490   -52.7960 O             1 RES     
   12207 H           52.0490    -5.5230   -52.1600 H             1 RES     
   12208 H           50.6640    -6.1220   -52.7840 H             1 RES     
   12209 O           33.8890     0.9660   -51.0400 O             1 RES     
   12210 H           34.4310     0.3480   -51.6090 H             1 RES     
   12211 H           32.9950     0.5560   -50.8590 H             1 RES     
   12212 O           48.4610    20.2040   -58.7470 O             1 RES     
   12213 H           48.7310    19.4170   -58.1930 H             1 RES     
   12214 H           47.8710    20.8050   -58.2070 H             1 RES     
   12215 O            0.6530    35.1840   -58.1740 O             1 RES     
   12216 H           -0.3290    35.0000   -58.1790 H             1 RES     
   12217 H            1.1550    34.3190   -58.1340 H             1 RES     
   12218 O           48.3900    38.6200   -62.7880 O             1 RES     
   12219 H           47.9490    37.8260   -63.2050 H             1 RES     
   12220 H           48.7440    38.3710   -61.8870 H             1 RES     
   12221 O           42.0640    23.0600   -62.5080 O             1 RES     
   12222 H           42.9760    23.4650   -62.4570 H             1 RES     
   12223 H           41.3770    23.7870   -62.5350 H             1 RES     
   12224 O           44.8280    35.3280   -61.3540 O             1 RES     
   12225 H           45.5790    35.3970   -62.0100 H             1 RES     
   12226 H           44.7770    34.3930   -61.0030 H             1 RES     
   12227 O           44.3030    12.0030   -55.8780 O             1 RES     
   12228 H           44.0620    12.7040   -56.5480 H             1 RES     
   12229 H           44.0480    12.3150   -54.9620 H             1 RES     
   12230 O           52.0460    -0.6850   -59.8120 O             1 RES     
   12231 H           51.4870    -0.1390   -59.1890 H             1 RES     
   12232 H           51.7720    -0.4990   -60.7560 H             1 RES     
   12233 O           37.3920    16.5790   -60.8330 O             1 RES     
   12234 H           36.4170    16.3890   -60.7230 H             1 RES     
   12235 H           37.5470    17.5660   -60.7920 H             1 RES     
   12236 O            1.7020    29.4080   -50.9860 O             1 RES     
   12237 H            0.7420    29.5930   -50.7770 H             1 RES     
   12238 H            2.0730    30.1540   -51.5380 H             1 RES     
   12239 O           37.9310    23.7790   -51.0100 O             1 RES     
   12240 H           38.0200    23.4240   -51.9400 H             1 RES     
   12241 H           38.7460    24.3080   -50.7750 H             1 RES     
   12242 O           41.1450    31.9580   -55.6940 O             1 RES     
   12243 H           41.2950    32.9060   -55.4170 H             1 RES     
   12244 H           40.1620    31.7760   -55.7420 H             1 RES     
   12245 O           46.9140    -3.1300   -50.4690 O             1 RES     
   12246 H           45.9620    -3.4310   -50.4360 H             1 RES     
   12247 H           46.9510    -2.1320   -50.4090 H             1 RES     
   12248 O            5.3170    -0.1060   -53.9980 O             1 RES     
   12249 H            5.3520     0.1650   -54.9590 H             1 RES     
   12250 H            4.7020     0.5070   -53.5010 H             1 RES     
   12251 O            4.4840    34.4680   -53.4610 O             1 RES     
   12252 H            4.2440    34.4230   -54.4300 H             1 RES     
   12253 H            4.0130    33.7380   -52.9660 H             1 RES     
   12254 O           27.8730    35.2880   -55.8650 O             1 RES     
   12255 H           27.1470    34.6050   -55.9320 H             1 RES     
   12256 H           28.7630    34.8360   -55.9320 H             1 RES     
   12257 O           48.0110     3.4380   -50.4950 O             1 RES     
   12258 H           48.9940     3.5460   -50.6370 H             1 RES     
   12259 H           47.7910     2.4660   -50.4080 H             1 RES     
   12260 O            3.1770     2.1810   -55.8650 O             1 RES     
   12261 H            3.4120     1.5660   -55.1130 H             1 RES     
   12262 H            2.2590     2.5500   -55.7210 H             1 RES     
   12263 O           26.3870     5.0440   -62.5540 O             1 RES     
   12264 H           27.1370     4.4430   -62.8280 H             1 RES     
   12265 H           25.5580     4.7960   -63.0560 H             1 RES     
   12266 O           16.6070    15.1680   -53.6390 O             1 RES     
   12267 H           15.6920    15.5670   -53.5980 H             1 RES     
   12268 H           16.5490    14.1830   -53.4740 H             1 RES     
   12269 O            8.2680    26.0130   -59.1060 O             1 RES     
   12270 H            8.5800    25.0830   -59.2980 H             1 RES     
   12271 H            8.9190    26.4650   -58.4970 H             1 RES     
   12272 O           45.2830    27.4920   -53.0220 O             1 RES     
   12273 H           44.9550    26.5540   -52.9140 H             1 RES     
   12274 H           44.5020    28.1120   -53.1010 H             1 RES     
   12275 O           12.1850    38.1340   -58.8650 O             1 RES     
   12276 H           12.9370    38.7930   -58.8670 H             1 RES     
   12277 H           12.5160    37.2500   -59.1940 H             1 RES     
   12278 O           43.6640     3.4380   -59.0720 O             1 RES     
   12279 H           43.2280     2.7160   -58.5370 H             1 RES     
   12280 H           43.8510     4.2240   -58.4820 H             1 RES     
   12281 O           -4.7640     6.9750   -60.7020 O             1 RES     
   12282 H           -4.3080     6.4830   -59.9620 H             1 RES     
   12283 H           -4.9620     6.3410   -61.4510 H             1 RES     
   12284 O           32.3290     9.5280   -59.2930 O             1 RES     
   12285 H           31.3880     9.2170   -59.1640 H             1 RES     
   12286 H           32.9100     9.1400   -58.5770 H             1 RES     
   12287 O           -4.0740    -0.8820   -61.0670 O             1 RES     
   12288 H           -4.6650    -0.8300   -61.8710 H             1 RES     
   12289 H           -3.3150    -0.2380   -61.1680 H             1 RES     
   12290 O           19.5280    21.7510   -51.2750 O             1 RES     
   12291 H           20.4050    22.1250   -50.9740 H             1 RES     
   12292 H           19.1820    21.1150   -50.5840 H             1 RES     
   12293 O           27.1850    -7.6690   -51.1640 O             1 RES     
   12294 H           26.5310    -7.7070   -50.4090 H             1 RES     
   12295 H           27.1110    -6.7850   -51.6250 H             1 RES     
   12296 O           21.0600    -0.7830   -57.5250 O             1 RES     
   12297 H           20.1150    -0.5080   -57.3520 H             1 RES     
   12298 H           21.5610    -0.8190   -56.6600 H             1 RES     
   12299 O           -3.3480    -0.6600   -57.0320 O             1 RES     
   12300 H           -3.6450    -1.6150   -57.0380 H             1 RES     
   12301 H           -2.3490    -0.6220   -57.0230 H             1 RES     
   12302 O           49.0140    -7.0840   -59.3170 O             1 RES     
   12303 H           48.0150    -7.0730   -59.2940 H             1 RES     
   12304 H           49.3610    -6.1520   -59.2110 H             1 RES     
   12305 O            1.3120     9.7660   -56.8120 O             1 RES     
   12306 H            2.2970     9.8770   -56.6830 H             1 RES     
   12307 H            0.9500    10.5550   -57.3080 H             1 RES     
   12308 O           -3.2480    28.1540   -63.4370 O             1 RES     
   12309 H           -3.5110    28.7710   -62.6950 H             1 RES     
   12310 H           -2.2520    28.0660   -63.4610 H             1 RES     
   12311 O           22.2460    31.1930   -56.8660 O             1 RES     
   12312 H           21.5550    30.5820   -56.4820 H             1 RES     
   12313 H           22.9200    30.6580   -57.3740 H             1 RES     
   12314 O            8.3690    -5.6470   -59.6420 O             1 RES     
   12315 H            8.4360    -6.6390   -59.5400 H             1 RES     
   12316 H            7.4100    -5.3880   -59.7640 H             1 RES     
   12317 O           -4.6010     9.1860   -63.0690 O             1 RES     
   12318 H           -5.5990     9.2180   -63.0500 H             1 RES     
   12319 H           -4.2370    10.1180   -63.0820 H             1 RES     
   12320 O           45.5580    38.3930   -61.7700 O             1 RES     
   12321 H           44.8080    37.9610   -61.2720 H             1 RES     
   12322 H           45.2620    38.6040   -62.7020 H             1 RES     
   12323 O           -5.5400    38.2050   -61.1270 O             1 RES     
   12324 H           -6.1130    39.0170   -61.0180 H             1 RES     
   12325 H           -6.1120    37.4230   -61.3760 H             1 RES     
   12326 O           27.1090    -1.8690   -58.1750 O             1 RES     
   12327 H           26.5290    -2.6540   -57.9600 H             1 RES     
   12328 H           27.9640    -2.1880   -58.5840 H             1 RES     
   12329 O           32.5870    24.3120   -54.6340 O             1 RES     
   12330 H           32.5720    23.5780   -53.9550 H             1 RES     
   12331 H           31.7230    24.8160   -54.6000 H             1 RES     
   12332 O           15.9030     8.2670   -54.2740 O             1 RES     
   12333 H           16.0830     7.4040   -53.8030 H             1 RES     
   12334 H           14.9370     8.5050   -54.1770 H             1 RES     
   12335 O           -3.0580    27.6360   -57.1620 O             1 RES     
   12336 H           -3.0540    27.5230   -56.1690 H             1 RES     
   12337 H           -3.1720    26.7440   -57.5990 H             1 RES     
   12338 O           51.9750    25.6990   -61.2980 O             1 RES     
   12339 H           51.7470    25.2500   -62.1610 H             1 RES     
   12340 H           52.0490    26.6860   -61.4450 H             1 RES     
   12341 O           27.1780     7.1510   -57.4560 O             1 RES     
   12342 H           27.7690     7.9550   -57.5010 H             1 RES     
   12343 H           26.2240     7.4410   -57.3720 H             1 RES     
   12344 O           10.9540    33.0870   -62.3460 O             1 RES     
   12345 H           10.5540    32.8870   -61.4520 H             1 RES     
   12346 H           11.2180    34.0510   -62.3860 H             1 RES     
   12347 O           36.0920    14.6680   -63.1590 O             1 RES     
   12348 H           35.6040    14.5010   -62.3040 H             1 RES     
   12349 H           35.7150    14.0850   -63.8790 H             1 RES     
   12350 O           -1.5740     1.4440   -53.4280 O             1 RES     
   12351 H           -1.1870     2.0810   -54.0930 H             1 RES     
   12352 H           -0.8340     0.9540   -52.9650 H             1 RES     
   12353 O           22.8430    11.7980   -58.5630 O             1 RES     
   12354 H           23.4700    11.1410   -58.1440 H             1 RES     
   12355 H           22.0390    11.3170   -58.9120 H             1 RES     
   12356 O            3.0560     8.0310   -61.9340 O             1 RES     
   12357 H            3.9380     8.2440   -62.3510 H             1 RES     
   12358 H            2.7260     8.8270   -61.4260 H             1 RES     
   12359 O           27.3070     2.9390   -56.2130 O             1 RES     
   12360 H           26.3500     2.8360   -56.4830 H             1 RES     
   12361 H           27.6390     2.0780   -55.8280 H             1 RES     
   12362 O           21.0780    38.3880   -50.7670 O             1 RES     
   12363 H           21.4440    39.3170   -50.7310 H             1 RES     
   12364 H           21.8330    37.7320   -50.7870 H             1 RES     
   12365 O           34.5060    -4.6950   -50.5560 O             1 RES     
   12366 H           33.9780    -5.5310   -50.4090 H             1 RES     
   12367 H           35.2050    -4.8600   -51.2520 H             1 RES     
   12368 O           11.7540    29.4130   -61.8260 O             1 RES     
   12369 H           12.4530    30.0340   -61.4740 H             1 RES     
   12370 H           11.5390    29.6540   -62.7730 H             1 RES     
   12371 O           45.5550    21.6830   -55.9340 O             1 RES     
   12372 H           45.0020    21.0170   -56.4340 H             1 RES     
   12373 H           44.9670    22.4180   -55.5950 H             1 RES     
   12374 O            3.3550    24.1460   -58.0630 O             1 RES     
   12375 H            4.0370    24.5810   -57.4750 H             1 RES     
   12376 H            3.6510    24.2040   -59.0170 H             1 RES     
   12377 O            6.6590     7.6340   -59.0830 O             1 RES     
   12378 H            7.0060     8.5610   -58.9440 H             1 RES     
   12379 H            6.6850     7.1340   -58.2170 H             1 RES     
   12380 O           21.0330    -4.3330   -57.0550 O             1 RES     
   12381 H           21.1050    -5.3300   -57.0700 H             1 RES     
   12382 H           20.0690    -4.0680   -57.0500 H             1 RES     
   12383 O           29.5960     9.2380   -56.6160 O             1 RES     
   12384 H           28.9680     9.7730   -57.1810 H             1 RES     
   12385 H           30.1370     9.8550   -56.0440 H             1 RES     
   12386 O           -5.3170    -6.0780   -52.8070 O             1 RES     
   12387 H           -4.8940    -6.9840   -52.7860 H             1 RES     
   12388 H           -4.6240    -5.3910   -53.0270 H             1 RES     
   12389 O            6.5550    -3.2180   -56.7590 O             1 RES     
   12390 H            7.0220    -2.3870   -57.0600 H             1 RES     
   12391 H            7.1770    -3.9970   -56.8350 H             1 RES     
   12392 O           23.4600    -6.9060   -50.4080 O             1 RES     
   12393 H           22.8590    -7.7040   -50.4430 H             1 RES     
   12394 H           24.4010    -7.1890   -50.5930 H             1 RES     
   12395 O           49.1830    32.1490   -58.3290 O             1 RES     
   12396 H           48.8650    31.5300   -57.6130 H             1 RES     
   12397 H           49.0260    33.0960   -58.0470 H             1 RES     
   12398 O           22.5750    18.4270   -64.0380 O             1 RES     
   12399 H           21.8000    17.9130   -63.6750 H             1 RES     
   12400 H           23.0330    18.9130   -63.2930 H             1 RES     
   12401 O           49.1010    14.6540   -60.1340 O             1 RES     
   12402 H           49.7510    13.8980   -60.2000 H             1 RES     
   12403 H           49.6010    15.5200   -60.0860 H             1 RES     
   12404 O           43.4640    15.0280   -55.6390 O             1 RES     
   12405 H           42.7700    14.3310   -55.8180 H             1 RES     
   12406 H           44.3390    14.5850   -55.4420 H             1 RES     
   12407 O           -5.3840    29.1130   -56.6940 O             1 RES     
   12408 H           -6.1040    28.4370   -56.8440 H             1 RES     
   12409 H           -5.7260    29.8380   -56.0960 H             1 RES     
   12410 O           45.9550    23.2880   -51.1850 O             1 RES     
   12411 H           46.0110    22.3090   -50.9940 H             1 RES     
   12412 H           46.8720    23.6870   -51.1560 H             1 RES     
   12413 O           50.3310    -3.1700   -54.8930 O             1 RES     
   12414 H           50.6110    -2.6960   -55.7270 H             1 RES     
   12415 H           49.4650    -2.7890   -54.5670 H             1 RES     
   12416 O           31.8640    -6.7720   -50.5590 O             1 RES     
   12417 H           30.8650    -6.7970   -50.5580 H             1 RES     
   12418 H           32.2220    -7.6940   -50.4080 H             1 RES     
   12419 O           38.8660    -3.8120   -57.7020 O             1 RES     
   12420 H           39.2450    -4.3900   -56.9800 H             1 RES     
   12421 H           38.3570    -3.0560   -57.2910 H             1 RES     
   12422 O            6.8730     8.1980   -61.1990 O             1 RES     
   12423 H            7.2820     7.3040   -61.3790 H             1 RES     
   12424 H            6.0580     8.3140   -61.7660 H             1 RES     
   12425 O           -2.5480     9.0590   -60.5470 O             1 RES     
   12426 H           -3.4340     9.0550   -61.0080 H             1 RES     
   12427 H           -2.5810     8.4490   -59.7550 H             1 RES     
   12428 O           34.2350    -0.3010   -59.3230 O             1 RES     
   12429 H           34.7980    -0.5670   -60.1050 H             1 RES     
   12430 H           33.3390     0.0050   -59.6440 H             1 RES     
   12431 O           12.1360    -7.7060   -55.7810 O             1 RES     
   12432 H           11.4970    -7.3790   -56.4750 H             1 RES     
   12433 H           12.1090    -7.0970   -54.9880 H             1 RES     
   12434 O           50.0020    22.6750   -55.2860 O             1 RES     
   12435 H           49.5540    22.3160   -54.4680 H             1 RES     
   12436 H           50.9870    22.7440   -55.1240 H             1 RES     
   12437 O           -3.3640    18.7710   -62.7510 O             1 RES     
   12438 H           -4.0800    18.1190   -62.5090 H             1 RES     
   12439 H           -3.7710    19.6710   -62.9120 H             1 RES     
   12440 O           29.3640     1.0590   -63.3560 O             1 RES     
   12441 H           29.0100     0.8320   -62.4490 H             1 RES     
   12442 H           29.8450     1.9350   -63.3180 H             1 RES     
   12443 O           49.1950     1.2010   -51.8930 O             1 RES     
   12444 H           50.0510     1.7120   -51.9610 H             1 RES     
   12445 H           49.3470     0.2560   -52.1830 H             1 RES     
   12446 O            2.9630    25.4770   -60.8080 O             1 RES     
   12447 H            3.1170    26.4640   -60.8350 H             1 RES     
   12448 H            2.0130    25.2800   -61.0540 H             1 RES     
   12449 O           18.4390    -5.7070   -58.4460 O             1 RES     
   12450 H           18.2270    -5.2920   -57.5610 H             1 RES     
   12451 H           19.0220    -5.0880   -58.9730 H             1 RES     
   12452 O           18.2390    23.4390   -61.1850 O             1 RES     
   12453 H           18.2820    22.9090   -62.0310 H             1 RES     
   12454 H           18.6620    24.3340   -61.3290 H             1 RES     
   12455 O           29.7950    35.7380   -52.4960 O             1 RES     
   12456 H           30.6940    35.9900   -52.8530 H             1 RES     
   12457 H           29.5120    34.8640   -52.8920 H             1 RES     
   12458 O           29.9820    30.4910   -63.5130 O             1 RES     
   12459 H           29.6850    29.7860   -62.8710 H             1 RES     
   12460 H           29.4330    31.3160   -63.3810 H             1 RES     
   12461 O           20.4540     3.9310   -59.6820 O             1 RES     
   12462 H           19.7560     4.6060   -59.4470 H             1 RES     
   12463 H           20.9490     4.2320   -60.4980 H             1 RES     
   12464 O           21.0240    30.4230   -50.9950 O             1 RES     
   12465 H           20.4380    29.6160   -50.9330 H             1 RES     
   12466 H           20.6610    31.1470   -50.4080 H             1 RES     
   12467 O            5.0940    35.3940   -60.1910 O             1 RES     
   12468 H            5.0380    35.0530   -61.1290 H             1 RES     
   12469 H            5.1070    34.6220   -59.5560 H             1 RES     
   12470 O           25.8720    19.5400   -56.8530 O             1 RES     
   12471 H           26.3970    19.2710   -56.0470 H             1 RES     
   12472 H           25.0570    18.9650   -56.9290 H             1 RES     
   12473 O           20.5660    35.5060   -59.4550 O             1 RES     
   12474 H           19.7860    36.1270   -59.3860 H             1 RES     
   12475 H           20.2690    34.6420   -59.8620 H             1 RES     
   12476 O            6.5550     0.7430   -50.4080 O             1 RES     
   12477 H            7.3300     0.1250   -50.5290 H             1 RES     
   12478 H            6.5060     1.3740   -51.1830 H             1 RES     
   12479 O            3.5030     7.8830   -59.2050 O             1 RES     
   12480 H            2.9560     8.3460   -58.5080 H             1 RES     
   12481 H            2.9040     7.3370   -59.7910 H             1 RES     
   12482 O            8.6130    -6.1260   -63.5860 O             1 RES     
   12483 H            8.3750    -6.6760   -62.7860 H             1 RES     
   12484 H            9.4260    -5.5800   -63.3860 H             1 RES     
   12485 O           13.3190    25.9030   -52.3360 O             1 RES     
   12486 H           12.8370    26.0870   -53.1920 H             1 RES     
   12487 H           13.7280    24.9910   -52.3710 H             1 RES     
   12488 O           52.0480    16.3810   -59.7260 O             1 RES     
   12489 H           51.2200    16.9200   -59.5790 H             1 RES     
   12490 H           51.7970    15.4480   -59.9840 H             1 RES     
   12491 O            2.6740    -1.5600   -60.9560 O             1 RES     
   12492 H            2.1840    -2.3800   -61.2500 H             1 RES     
   12493 H            2.3490    -0.7710   -61.4780 H             1 RES     
   12494 O           41.0680    16.1880   -57.5710 O             1 RES     
   12495 H           41.1960    15.5910   -58.3620 H             1 RES     
   12496 H           41.9530    16.5520   -57.2810 H             1 RES     
   12497 O            7.9490    28.3630   -63.2670 O             1 RES     
   12498 H            7.2920    29.0890   -63.0680 H             1 RES     
   12499 H            7.6710    27.8800   -64.0980 H             1 RES     
   12500 O           40.9400    -5.5950   -51.4440 O             1 RES     
   12501 H           40.8180    -4.7390   -51.9450 H             1 RES     
   12502 H           40.3460    -6.2980   -51.8340 H             1 RES     
   12503 O           39.3140     6.1570   -54.7560 O             1 RES     
   12504 H           39.6360     6.1960   -55.7010 H             1 RES     
   12505 H           40.1000     6.1440   -54.1370 H             1 RES     
   12506 O           42.4200    29.6550   -55.2620 O             1 RES     
   12507 H           41.5370    29.6410   -55.7310 H             1 RES     
   12508 H           42.8930    30.5120   -55.4670 H             1 RES     
   12509 O           24.8600    29.0740   -62.3490 O             1 RES     
   12510 H           25.7350    28.5900   -62.3540 H             1 RES     
   12511 H           24.1120    28.4110   -62.3620 H             1 RES     
   12512 O            7.2960    -6.6060   -57.0520 O             1 RES     
   12513 H            7.9250    -5.9660   -57.4920 H             1 RES     
   12514 H            6.5590    -6.0970   -56.6060 H             1 RES     
   12515 O           41.7580    29.8510   -60.1770 O             1 RES     
   12516 H           42.6240    29.3540   -60.2030 H             1 RES     
   12517 H           41.7430    30.4530   -59.3780 H             1 RES     
   12518 O           -5.4730     9.4580   -52.5790 O             1 RES     
   12519 H           -5.3670    10.3310   -52.1050 H             1 RES     
   12520 H           -4.5770     9.1270   -52.8760 H             1 RES     
   12521 O           14.4220    19.2540   -59.7860 O             1 RES     
   12522 H           14.8870    18.5940   -59.1960 H             1 RES     
   12523 H           14.9730    20.0850   -59.8550 H             1 RES     
   12524 O           48.4730    16.6850   -58.5990 O             1 RES     
   12525 H           47.9540    17.4820   -58.9070 H             1 RES     
   12526 H           47.8790    16.0890   -58.0580 H             1 RES     
   12527 O           41.9020    22.0850   -50.4080 O             1 RES     
   12528 H           42.8820    22.1540   -50.5920 H             1 RES     
   12529 H           41.5850    21.1610   -50.6250 H             1 RES     
   12530 O            9.5060    16.5230   -60.8340 O             1 RES     
   12531 H           10.0250    17.2880   -61.2130 H             1 RES     
   12532 H           10.1110    15.7370   -60.7110 H             1 RES     
   12533 O           -4.2410     4.1420   -52.2700 O             1 RES     
   12534 H           -3.9300     3.2400   -51.9720 H             1 RES     
   12535 H           -4.9580     4.0380   -52.9590 H             1 RES     
   12536 O           29.6180     2.9960   -50.8080 O             1 RES     
   12537 H           30.4140     2.4050   -50.6840 H             1 RES     
   12538 H           29.9210     3.9250   -51.0190 H             1 RES     
   12539 O            7.6760    25.5790   -54.4750 O             1 RES     
   12540 H            6.8960    26.1690   -54.6760 H             1 RES     
   12541 H            8.4410    25.8200   -55.0730 H             1 RES     
   12542 O           15.8450    23.7280   -62.7920 O             1 RES     
   12543 H           16.1610    24.4150   -62.1380 H             1 RES     
   12544 H           16.0110    22.8140   -62.4210 H             1 RES     
   12545 O           14.7950    15.5030   -62.0500 O             1 RES     
   12546 H           14.8130    14.5250   -62.2550 H             1 RES     
   12547 H           15.6400    15.9280   -62.3750 H             1 RES     
   12548 O           16.9970     3.2400   -62.6070 O             1 RES     
   12549 H           16.1240     2.7610   -62.5220 H             1 RES     
   12550 H           17.7410     2.5740   -62.6570 H             1 RES     
   12551 O           47.0410    33.9030   -57.5480 O             1 RES     
   12552 H           47.3330    34.8150   -57.8350 H             1 RES     
   12553 H           46.0790    33.9310   -57.2750 H             1 RES     
   12554 O           29.1820    21.6250   -55.1940 O             1 RES     
   12555 H           30.1350    21.3730   -55.0280 H             1 RES     
   12556 H           28.7310    21.8180   -54.3230 H             1 RES     
   12557 O           49.8550    28.5190   -57.2860 O             1 RES     
   12558 H           50.8000    28.2350   -57.1260 H             1 RES     
   12559 H           49.2320    27.8300   -56.9140 H             1 RES     
   12560 O           49.1120    20.4330   -55.5690 O             1 RES     
   12561 H           48.2270    20.6440   -55.9820 H             1 RES     
   12562 H           49.1760    19.4490   -55.4000 H             1 RES     
   12563 O           24.7060    36.1570   -60.0310 O             1 RES     
   12564 H           25.5480    35.7910   -59.6380 H             1 RES     
   12565 H           23.9380    35.9570   -59.4220 H             1 RES     
   12566 O            1.2120     7.9020   -52.4180 O             1 RES     
   12567 H            0.9510     7.2990   -51.6660 H             1 RES     
   12568 H            1.3750     8.8240   -52.0660 H             1 RES     
   12569 O           47.6950     4.8670   -64.0960 O             1 RES     
   12570 H           48.3970     4.1850   -63.8930 H             1 RES     
   12571 H           47.3180     5.2230   -63.2400 H             1 RES     
   12572 O           -1.7860    22.8190   -58.6490 O             1 RES     
   12573 H           -2.7840    22.7920   -58.5900 H             1 RES     
   12574 H           -1.4890    23.7470   -58.8730 H             1 RES     
   12575 O           31.8960    36.0880   -63.5080 O             1 RES     
   12576 H           31.5260    37.0160   -63.4910 H             1 RES     
   12577 H           31.3270    35.5130   -64.0980 H             1 RES     
   12578 O           44.9070    20.4600   -53.0530 O             1 RES     
   12579 H           44.3000    19.6710   -52.9620 H             1 RES     
   12580 H           44.9280    20.7570   -54.0080 H             1 RES     
   12581 O            1.7540    10.3020   -59.3490 O             1 RES     
   12582 H            2.7180    10.3050   -59.6150 H             1 RES     
   12583 H            1.3500     9.4140   -59.5660 H             1 RES     
   12584 O           -1.2950    -0.7880   -55.0490 O             1 RES     
   12585 H           -0.4580    -0.9910   -54.5420 H             1 RES     
   12586 H           -1.3390     0.1920   -55.2430 H             1 RES     
   12587 O            2.0420    22.9620   -61.7990 O             1 RES     
   12588 H            1.8890    22.7040   -60.8460 H             1 RES     
   12589 H            2.9130    23.4490   -61.8780 H             1 RES     
   12590 O           41.7030     5.4750   -57.8510 O             1 RES     
   12591 H           42.5560     5.9600   -58.0410 H             1 RES     
   12592 H           41.0460     5.6550   -58.5830 H             1 RES     
   12593 O           33.4140    24.1720   -62.6610 O             1 RES     
   12594 H           32.9210    23.7800   -61.8860 H             1 RES     
   12595 H           34.1380    23.5440   -62.9480 H             1 RES     
   12596 O           30.0160    14.1300   -54.8100 O             1 RES     
   12597 H           29.9810    13.1390   -54.9280 H             1 RES     
   12598 H           30.1040    14.3480   -53.8370 H             1 RES     
   12599 O           16.3090    37.4490   -59.4590 O             1 RES     
   12600 H           16.2620    38.0910   -60.2230 H             1 RES     
   12601 H           17.0240    36.7710   -59.6360 H             1 RES     
   12602 O           49.5350    35.6740   -60.3740 O             1 RES     
   12603 H           49.2510    34.7440   -60.1400 H             1 RES     
   12604 H           50.5270    35.6980   -60.5010 H             1 RES     
   12605 O           35.0030    -1.6070   -54.1560 O             1 RES     
   12606 H           34.7890    -0.7290   -53.7300 H             1 RES     
   12607 H           34.9570    -2.3320   -53.4690 H             1 RES     
   12608 O           23.6690    38.5850   -62.8280 O             1 RES     
   12609 H           24.0270    38.9500   -63.6860 H             1 RES     
   12610 H           23.2380    39.3210   -62.3050 H             1 RES     
   12611 O           22.6090    30.8280   -52.4670 O             1 RES     
   12612 H           23.4530    30.4000   -52.7880 H             1 RES     
   12613 H           22.0640    31.1220   -53.2520 H             1 RES     
   12614 O           28.9130    23.8260   -63.7340 O             1 RES     
   12615 H           28.2150    23.2080   -64.0960 H             1 RES     
   12616 H           29.5340    23.3160   -63.1380 H             1 RES     
   12617 O           41.6200    -0.6110   -51.2210 O             1 RES     
   12618 H           42.2280    -0.9130   -50.4870 H             1 RES     
   12619 H           42.0520    -0.7870   -52.1060 H             1 RES     
   12620 O           14.0030    28.3540   -64.0980 O             1 RES     
   12621 H           13.0350    28.5630   -63.9610 H             1 RES     
   12622 H           14.5600    28.9720   -63.5420 H             1 RES     
   12623 O           12.3340     8.7130   -54.2600 O             1 RES     
   12624 H           11.8440     8.0420   -53.7040 H             1 RES     
   12625 H           12.8910     8.2390   -54.9420 H             1 RES     
   12626 O           -0.1160    33.2880   -50.7330 O             1 RES     
   12627 H            0.3730    32.8940   -51.5110 H             1 RES     
   12628 H           -0.8050    32.6400   -50.4090 H             1 RES     
   12629 O           23.3480    37.2790   -55.8730 O             1 RES     
   12630 H           23.7600    37.7760   -55.1100 H             1 RES     
   12631 H           22.5060    36.8340   -55.5660 H             1 RES     
   12632 O           18.1030     8.1110   -52.2600 O             1 RES     
   12633 H           17.6110     7.2410   -52.2280 H             1 RES     
   12634 H           17.4460     8.8650   -52.2970 H             1 RES     
   12635 O           36.4500    26.0310   -64.0980 O             1 RES     
   12636 H           37.0580    25.7050   -63.3760 H             1 RES     
   12637 H           36.4160    27.0300   -64.0800 H             1 RES     
   12638 O           49.3590    -3.4120   -58.1650 O             1 RES     
   12639 H           49.6760    -2.4900   -57.9410 H             1 RES     
   12640 H           49.6440    -3.6460   -59.0950 H             1 RES     
   12641 O           -2.6310    21.9180   -52.6580 O             1 RES     
   12642 H           -1.8050    21.5540   -53.0870 H             1 RES     
   12643 H           -3.1180    22.5000   -53.3100 H             1 RES     
   12644 O           32.8100    17.1140   -54.2570 O             1 RES     
   12645 H           32.7150    18.0520   -54.5880 H             1 RES     
   12646 H           33.7250    16.9880   -53.8720 H             1 RES     
   12647 O           12.4950     7.9140   -51.6060 O             1 RES     
   12648 H           11.8140     7.2040   -51.4310 H             1 RES     
   12649 H           13.2660     7.5210   -52.1080 H             1 RES     
   12650 O            7.8040     1.8120   -54.6040 O             1 RES     
   12651 H            6.8950     1.6520   -54.2200 H             1 RES     
   12652 H            8.2750     0.9380   -54.7240 H             1 RES     
   12653 O           -2.0190    37.6160   -55.6540 O             1 RES     
   12654 H           -2.5710    36.7830   -55.6910 H             1 RES     
   12655 H           -1.0500    37.3720   -55.6070 H             1 RES     
   12656 O           34.1790    23.9830   -59.7810 O             1 RES     
   12657 H           33.2790    24.2780   -59.4600 H             1 RES     
   12658 H           34.1080    23.0670   -60.1770 H             1 RES     
   12659 O           38.4340    25.3870   -57.3570 O             1 RES     
   12660 H           37.7420    25.1180   -56.6880 H             1 RES     
   12661 H           38.1140    26.1870   -57.8650 H             1 RES     
   12662 O           30.4510    -7.7080   -59.0350 O             1 RES     
   12663 H           30.7380    -6.7680   -58.8540 H             1 RES     
   12664 H           29.5260    -7.7080   -59.4140 H             1 RES     
   12665 O           17.3990    29.0140   -61.9370 O             1 RES     
   12666 H           17.3670    30.0120   -61.9690 H             1 RES     
   12667 H           18.3480    28.7070   -62.0050 H             1 RES     
   12668 O           25.9590    28.0240   -53.0490 O             1 RES     
   12669 H           25.4660    27.2170   -53.3690 H             1 RES     
   12670 H           25.3580    28.5750   -52.4700 H             1 RES     
   12671 O           31.5420    33.0100   -52.5840 O             1 RES     
   12672 H           31.4600    33.9840   -52.3750 H             1 RES     
   12673 H           32.4970    32.7280   -52.4910 H             1 RES     
   12674 O           37.4930    19.9050   -62.7730 O             1 RES     
   12675 H           37.2920    20.2880   -63.6740 H             1 RES     
   12676 H           38.2020    19.2050   -62.8580 H             1 RES     
   12677 O            1.5500     2.3160   -61.2960 O             1 RES     
   12678 H            2.5060     2.5970   -61.2350 H             1 RES     
   12679 H            1.3250     2.1010   -62.2470 H             1 RES     
   12680 O           35.9430     8.8420   -58.5950 O             1 RES     
   12681 H           35.0730     8.4070   -58.3660 H             1 RES     
   12682 H           36.6960     8.3020   -58.2200 H             1 RES     
   12683 O           18.0430    39.1870   -51.0750 O             1 RES     
   12684 H           17.2950    38.5480   -51.2470 H             1 RES     
   12685 H           17.7490    39.8740   -50.4100 H             1 RES     
   12686 O           34.2800    -6.2530   -56.6380 O             1 RES     
   12687 H           33.7880    -5.5780   -56.0890 H             1 RES     
   12688 H           34.6030    -6.9920   -56.0470 H             1 RES     
   12689 O           10.3280     6.9600   -61.9690 O             1 RES     
   12690 H            9.3350     6.9560   -62.0880 H             1 RES     
   12691 H           10.6690     6.0200   -61.9820 H             1 RES     
   12692 O           29.0000    11.6990   -58.4480 O             1 RES     
   12693 H           28.4230    12.3990   -58.0290 H             1 RES     
   12694 H           28.8970    11.7320   -59.4420 H             1 RES     
   12695 O           37.0600    35.9790   -60.2330 O             1 RES     
   12696 H           37.1280    36.7480   -60.8670 H             1 RES     
   12697 H           36.1010    35.7090   -60.1360 H             1 RES     
   12698 O           24.0790    30.4050   -55.4850 O             1 RES     
   12699 H           24.6520    31.1770   -55.2100 H             1 RES     
   12700 H           23.1950    30.4630   -55.0200 H             1 RES     
   12701 O           28.3180    26.7270   -54.7000 O             1 RES     
   12702 H           28.0190    25.9900   -55.3050 H             1 RES     
   12703 H           27.5240    27.2530   -54.3960 H             1 RES     
   12704 O           19.2410    22.0370   -54.0770 O             1 RES     
   12705 H           20.1560    21.6440   -53.9870 H             1 RES     
   12706 H           19.0420    22.6040   -53.2780 H             1 RES     
   12707 O           17.2600    16.5490   -57.4200 O             1 RES     
   12708 H           17.9720    16.6100   -58.1180 H             1 RES     
   12709 H           16.3630    16.4970   -57.8610 H             1 RES     
   12710 O           21.3060    33.1250   -53.7570 O             1 RES     
   12711 H           22.0890    33.6820   -53.4820 H             1 RES     
   12712 H           20.5020    33.7100   -53.8690 H             1 RES     
   12713 O           39.0890    38.6730   -52.2270 O             1 RES     
   12714 H           39.0680    37.9920   -52.9580 H             1 RES     
   12715 H           38.6910    39.5290   -52.5560 H             1 RES     
   12716 O           15.9540     8.7620   -63.3440 O             1 RES     
   12717 H           15.3780     9.2520   -63.9970 H             1 RES     
   12718 H           15.9710     9.2570   -62.4750 H             1 RES     
   12719 O           48.3150     8.1630   -54.5190 O             1 RES     
   12720 H           47.9990     9.0890   -54.7220 H             1 RES     
   12721 H           49.3090     8.1190   -54.6250 H             1 RES     
   12722 O           20.0040    -7.2530   -58.4530 O             1 RES     
   12723 H           20.7190    -7.7070   -57.9230 H             1 RES     
   12724 H           19.9060    -7.7070   -59.3390 H             1 RES     
   12725 O           23.4740    -2.1670   -58.2080 O             1 RES     
   12726 H           23.6640    -1.6720   -59.0550 H             1 RES     
   12727 H           23.5440    -3.1510   -58.3730 H             1 RES     
   12728 O           -0.2720    -2.1560   -52.6440 O             1 RES     
   12729 H           -0.2110    -1.3430   -52.0650 H             1 RES     
   12730 H           -1.2180    -2.4790   -52.6690 H             1 RES     
   12731 O           48.7400    15.8500   -53.1240 O             1 RES     
   12732 H           47.8130    15.5960   -53.3960 H             1 RES     
   12733 H           48.9880    16.7200   -53.5530 H             1 RES     
   12734 O           -0.1540    29.0300   -58.2190 O             1 RES     
   12735 H            0.0760    28.4970   -59.0320 H             1 RES     
   12736 H           -0.8970    28.5810   -57.7240 H             1 RES     
   12737 O           -4.5780    13.4620   -64.0260 O             1 RES     
   12738 H           -5.5240    13.1660   -63.8960 H             1 RES     
   12739 H           -3.9840    12.6600   -64.0980 H             1 RES     
   12740 O           35.0750    29.5350   -63.3590 O             1 RES     
   12741 H           34.9510    28.8030   -64.0280 H             1 RES     
   12742 H           35.1300    30.4150   -63.8320 H             1 RES     
   12743 O           24.0250    32.5680   -63.9030 O             1 RES     
   12744 H           23.5420    31.6960   -63.9780 H             1 RES     
   12745 H           23.3930    33.3180   -64.0980 H             1 RES     
   12746 O            0.5710    32.9160   -60.4500 O             1 RES     
   12747 H            1.0080    32.2650   -61.0690 H             1 RES     
   12748 H            1.2130    33.6510   -60.2290 H             1 RES     
   12749 O           14.3030    -4.0080   -57.3640 O             1 RES     
   12750 H           14.6250    -3.0840   -57.1600 H             1 RES     
   12751 H           15.0810    -4.6380   -57.3750 H             1 RES     
   12752 O           46.8320    -4.6070   -54.5240 O             1 RES     
   12753 H           46.0230    -4.6200   -55.1110 H             1 RES     
   12754 H           47.0930    -3.6600   -54.3350 H             1 RES     
   12755 O           -3.8140    24.6060   -51.4420 O             1 RES     
   12756 H           -3.4440    25.2600   -52.1000 H             1 RES     
   12757 H           -4.4230    25.0800   -50.8060 H             1 RES     
   12758 O           34.6110    30.8720   -59.3800 O             1 RES     
   12759 H           35.3850    30.2400   -59.3610 H             1 RES     
   12760 H           33.7660    30.3710   -59.1900 H             1 RES     
   12761 O            3.6550     1.8390   -58.8870 O             1 RES     
   12762 H            3.8790     2.1020   -57.9500 H             1 RES     
   12763 H            4.4210     1.3330   -59.2840 H             1 RES     
   12764 O           29.2090     3.1330   -58.1390 O             1 RES     
   12765 H           28.6590     3.9630   -58.2300 H             1 RES     
   12766 H           30.1660     3.3810   -57.9920 H             1 RES     
   12767 O           29.9570    -1.3590   -51.1850 O             1 RES     
   12768 H           29.7500    -2.2760   -51.5250 H             1 RES     
   12769 H           30.8800    -1.3460   -50.8000 H             1 RES     
   12770 O           22.1330    33.8070   -55.6780 O             1 RES     
   12771 H           22.7360    33.0100   -55.6640 H             1 RES     
   12772 H           22.6830    34.6420   -55.6340 H             1 RES     
   12773 O           19.6160    12.3560   -57.5570 O             1 RES     
   12774 H           20.2100    11.5590   -57.6640 H             1 RES     
   12775 H           19.1920    12.3370   -56.6520 H             1 RES     
   12776 O           46.0780    -0.7480   -52.3150 O             1 RES     
   12777 H           45.0900    -0.7150   -52.1700 H             1 RES     
   12778 H           46.3600    -1.6930   -52.4820 H             1 RES     
   12779 O            9.1010    30.6440   -51.0130 O             1 RES     
   12780 H            8.4320    31.1150   -50.4380 H             1 RES     
   12781 H            8.9080    30.8370   -51.9750 H             1 RES     
   12782 O            3.1140    20.4650   -58.9660 O             1 RES     
   12783 H            4.1060    20.5420   -59.0530 H             1 RES     
   12784 H            2.8100    19.5990   -59.3640 H             1 RES     
   12785 O            1.4950    15.1860   -55.8060 O             1 RES     
   12786 H            2.3260    14.8240   -56.2250 H             1 RES     
   12787 H            0.6960    14.8670   -56.3170 H             1 RES     
   12788 O           50.0260    22.4010   -62.2920 O             1 RES     
   12789 H           49.8980    23.3500   -62.0070 H             1 RES     
   12790 H           49.1410    22.0030   -62.5370 H             1 RES     
   12791 O           12.2120    -4.9310   -61.8650 O             1 RES     
   12792 H           13.1800    -5.1660   -61.9490 H             1 RES     
   12793 H           11.9720    -4.8480   -60.8980 H             1 RES     
   12794 O           24.6640    13.4670   -54.4530 O             1 RES     
   12795 H           23.8360    12.9440   -54.6520 H             1 RES     
   12796 H           24.4320    14.2520   -53.8780 H             1 RES     
   12797 O            8.5450    -6.7090   -54.8330 O             1 RES     
   12798 H            8.7100    -7.5550   -55.3400 H             1 RES     
   12799 H            7.5610    -6.5820   -54.7070 H             1 RES     
   12800 O           39.8890    32.9670   -59.0290 O             1 RES     
   12801 H           40.0220    33.4490   -58.1630 H             1 RES     
   12802 H           40.7560    32.5670   -59.3250 H             1 RES     
   12803 O           45.3450    -1.7130   -58.8560 O             1 RES     
   12804 H           45.6230    -0.9430   -59.4300 H             1 RES     
   12805 H           45.8250    -2.5390   -59.1500 H             1 RES     
   12806 O           -0.8250    13.4480   -64.0970 O             1 RES     
   12807 H           -0.4460    12.5310   -63.9790 H             1 RES     
   12808 H           -1.7330    13.4900   -63.6800 H             1 RES     
   12809 O           22.5600    -4.9250   -50.7330 O             1 RES     
   12810 H           22.9990    -4.0880   -50.4080 H             1 RES     
   12811 H           22.1680    -4.7660   -51.6390 H             1 RES     
   12812 O           20.9880    30.1480   -58.5630 O             1 RES     
   12813 H           21.4420    29.3030   -58.2830 H             1 RES     
   12814 H           21.4900    30.5610   -59.3230 H             1 RES     
   12815 O           46.9110    39.5270   -50.7850 O             1 RES     
   12816 H           46.5680    38.7340   -51.2870 H             1 RES     
   12817 H           46.4640    40.3560   -51.1250 H             1 RES     
   12818 O           27.6540    10.7800   -52.5680 O             1 RES     
   12819 H           27.3620    11.5560   -52.0100 H             1 RES     
   12820 H           26.8910    10.4710   -53.1360 H             1 RES     
   12821 O           33.9760     0.1670   -57.0280 O             1 RES     
   12822 H           33.1800     0.4620   -56.5010 H             1 RES     
   12823 H           33.9130    -0.8150   -57.2080 H             1 RES     
   12824 O           44.1010    25.1850   -57.2750 O             1 RES     
   12825 H           44.4050    25.4890   -56.3730 H             1 RES     
   12826 H           44.8300    24.6600   -57.7140 H             1 RES     
   12827 O           12.8470    -2.8420   -59.9320 O             1 RES     
   12828 H           13.7510    -2.6910   -60.3310 H             1 RES     
   12829 H           12.9120    -2.8070   -58.9350 H             1 RES     
   12830 O            7.9950    35.8790   -53.0900 O             1 RES     
   12831 H            8.9750    35.6850   -53.1190 H             1 RES     
   12832 H            7.4860    35.0200   -53.0290 H             1 RES     
   12833 O            9.8660    40.2490   -58.9190 O             1 RES     
   12834 H            9.5400    39.3340   -58.6830 H             1 RES     
   12835 H           10.8430    40.2100   -59.1320 H             1 RES     
   12836 O           -0.0900     7.5480   -60.2410 O             1 RES     
   12837 H           -0.8580     7.0040   -59.9050 H             1 RES     
   12838 H            0.7560     7.0210   -60.1520 H             1 RES     
   12839 O           10.9480    19.8530   -57.4720 O             1 RES     
   12840 H           11.0530    18.8810   -57.2650 H             1 RES     
   12841 H           11.8370    20.2400   -57.7180 H             1 RES     
   12842 O           12.7210    -0.7730   -58.0700 O             1 RES     
   12843 H           12.0050    -0.1800   -58.4380 H             1 RES     
   12844 H           13.5330    -0.7160   -58.6500 H             1 RES     
   12845 O           34.5300     8.2880   -51.9250 O             1 RES     
   12846 H           35.3270     8.3220   -52.5260 H             1 RES     
   12847 H           34.3810     7.3460   -51.6220 H             1 RES     
   12848 O           47.0390    33.0420   -60.1850 O             1 RES     
   12849 H           46.0740    32.7880   -60.2390 H             1 RES     
   12850 H           47.1180    34.0320   -60.0700 H             1 RES     
   12851 O           39.7430    23.7770   -56.0070 O             1 RES     
   12852 H           39.6340    24.7020   -55.6450 H             1 RES     
   12853 H           38.8510    23.3270   -56.0510 H             1 RES     
   12854 O           21.7260    35.2290   -63.4760 O             1 RES     
   12855 H           20.9290    35.8130   -63.3280 H             1 RES     
   12856 H           22.3630    35.6860   -64.0980 H             1 RES     
   12857 O           45.0760    -3.7870   -57.5010 O             1 RES     
   12858 H           44.8470    -4.7370   -57.2910 H             1 RES     
   12859 H           45.9510    -3.5530   -57.0760 H             1 RES     
   12860 O           -2.4460    -2.0060   -59.0290 O             1 RES     
   12861 H           -2.9290    -1.1490   -59.2030 H             1 RES     
   12862 H           -1.4610    -1.8330   -58.9890 H             1 RES     
   12863 O           11.4010    39.2760   -61.5570 O             1 RES     
   12864 H           11.4770    38.5140   -60.9140 H             1 RES     
   12865 H           11.6920    38.9770   -62.4660 H             1 RES     
   12866 O            3.9400    37.8910   -63.9210 O             1 RES     
   12867 H            3.7740    38.7840   -63.5030 H             1 RES     
   12868 H            4.9210    37.7760   -64.0840 H             1 RES     
   12869 O           49.8500    30.1520   -62.1520 O             1 RES     
   12870 H           50.7830    30.4990   -62.2360 H             1 RES     
   12871 H           49.4780    29.9690   -63.0620 H             1 RES     
   12872 O           16.7330    -3.1590   -58.4820 O             1 RES     
   12873 H           17.6250    -3.3910   -58.8670 H             1 RES     
   12874 H           16.8010    -3.1170   -57.4850 H             1 RES     
   12875 O            2.2000    40.3500   -56.9850 O             1 RES     
   12876 H            3.1860    40.2710   -56.8470 H             1 RES     
   12877 H            1.7380    40.3570   -56.0980 H             1 RES     
   12878 O            3.5490     4.3190   -55.5060 O             1 RES     
   12879 H            4.3880     4.3620   -54.9630 H             1 RES     
   12880 H            3.1510     5.2330   -55.5770 H             1 RES     
   12881 O           14.5690    10.3250   -51.3590 O             1 RES     
   12882 H           13.8800     9.6220   -51.5300 H             1 RES     
   12883 H           14.5040    10.6310   -50.4090 H             1 RES     
   12884 O            9.1620     0.4680   -57.0040 O             1 RES     
   12885 H            9.7730    -0.0420   -57.6080 H             1 RES     
   12886 H            9.3120     1.4490   -57.1290 H             1 RES     
   12887 O           35.1440    20.8830   -61.2440 O             1 RES     
   12888 H           34.9110    21.4360   -62.0430 H             1 RES     
   12889 H           35.5730    20.0300   -61.5420 H             1 RES     
   12890 O           10.5280    17.5830   -54.2210 O             1 RES     
   12891 H            9.6310    18.0080   -54.3420 H             1 RES     
   12892 H           11.1670    18.2520   -53.8420 H             1 RES     
   12893 O           20.2580    -0.5090   -52.1830 O             1 RES     
   12894 H           20.9410     0.2210   -52.1800 H             1 RES     
   12895 H           19.3420    -0.1090   -52.1850 H             1 RES     
   12896 O           -0.6200    22.8150   -61.1380 O             1 RES     
   12897 H           -0.1290    21.9610   -61.3060 H             1 RES     
   12898 H           -0.0990    23.5800   -61.5160 H             1 RES     
   12899 O           35.4480    11.6320   -50.8890 O             1 RES     
   12900 H           35.9180    11.3090   -51.7100 H             1 RES     
   12901 H           34.8340    12.3840   -51.1290 H             1 RES     
   12902 O           16.3400    14.8080   -59.8770 O             1 RES     
   12903 H           16.6190    13.8490   -59.9080 H             1 RES     
   12904 H           17.1510    15.3930   -59.9000 H             1 RES     
   12905 O           11.3290    21.5620   -63.4010 O             1 RES     
   12906 H           12.0540    20.8820   -63.5040 H             1 RES     
   12907 H           11.6960    22.4730   -63.5880 H             1 RES     
   12908 O           -5.6670    29.1750   -53.9830 O             1 RES     
   12909 H           -6.1120    28.3140   -54.2280 H             1 RES     
   12910 H           -5.0900    29.0350   -53.1780 H             1 RES     
   12911 O           43.4550     6.8080   -53.8430 O             1 RES     
   12912 H           42.6510     7.2450   -54.2450 H             1 RES     
   12913 H           43.2580     6.5550   -52.8960 H             1 RES     
   12914 O           44.7520     5.0310   -53.8380 O             1 RES     
   12915 H           45.1050     5.3600   -52.9630 H             1 RES     
   12916 H           44.3480     4.1240   -53.7160 H             1 RES     
   12917 O            6.6520    30.6480   -56.4540 O             1 RES     
   12918 H            6.1370    31.2390   -57.0740 H             1 RES     
   12919 H            6.0590    30.3520   -55.7050 H             1 RES     
   12920 O           29.0210    -1.9180   -61.5800 O             1 RES     
   12921 H           28.3890    -1.1870   -61.8370 H             1 RES     
   12922 H           29.4690    -2.2760   -62.3990 H             1 RES     
   12923 O           14.6910    -1.7580   -62.6350 O             1 RES     
   12924 H           15.1590    -1.1980   -63.3170 H             1 RES     
   12925 H           14.2710    -1.1650   -61.9470 H             1 RES     
   12926 O           33.7070    17.9560   -57.7040 O             1 RES     
   12927 H           32.9730    17.2830   -57.6210 H             1 RES     
   12928 H           33.5530    18.5190   -58.5160 H             1 RES     
@<TRIPOS>BOND
       1     7688     7689 1
       2    12521    12522 1
       3     6446     6447 1
       4     7526     7527 1
       5     2049     2050 1
       6    10679    10680 1
       7    11360    11361 1
       8     8525     8526 1
       9    10280    10281 1
      10    10442    10443 1
      11     5067     5068 1
      12     4633     4634 1
      13     2187     2188 1
      14      743      746 1
      15     4906     4907 1
      16     4680     4681 1
      17     4524     4525 1
      18     1466     1467 1
      19    10385    10386 1
      20    11141    11142 1
      21     4039     4040 1
      22     1504     1505 1
      23     8438     8439 1
      24    12353    12354 1
      25     1073     1076 1
      26     6521     6522 1
      27     8357     8358 1
      28    10598    10599 1
      29    10436    10437 1
      30     5534     5536 1
      31     6602     6603 1
      32     6440     6441 1
      33     3837     3833 1
      34      997     1000 1
      35      742      745 1
      36    11138    11139 1
      37     3348     3349 1
      38       23       24 1
      39     3197     3198 1
      40     1322     1323 1
      41     2162     2163 1
      42     8447     8448 1
      43     3275     3278 1
      44     2337     2338 1
      45     3484     3483 1
      46     3290     3291 1
      47     6998     6999 1
      48     4525     4526 1
      49     3265     3266 1
      50     5423     5424 1
      51     4842     4843 1
      52      856      857 1
      53     2888     2889 1
      54     3229     3230 1
      55     4362     4363 1
      56     4447     4448 1
      57     5092     5093 1
      58    10565    10566 1
      59     5651     5652 1
      60      979      983 1
      61     7730     7731 1
      62     8648     8649 1
      63     2951     2952 1
      64     6731     6732 1
      65     2343     2344 1
      66     3880     3899 1
      67    11564    11565 1
      68     1215     1216 1
      69    10829    10831 1
      70     6617     6618 1
      71     4379     4380 1
      72     1545     1548 1
      73     4080     4079 1
      74     4550     4549 1
      75     6014     6016 1
      76     7013     7015 1
      77    10847    10849 1
      78     8768     8770 1
      79     7769     7771 1
      80    11009    11011 1
      81     2943     2944 1
      82     1341     1343 1
      83     7931     7933 1
      84    11765    11767 1
      85     2756     2757 1
      86     4911     4912 1
      87     4211     4212 1
      88     5384     5385 1
      89     8909     8911 1
      90     4643     4644 1
      91     2038     2039 1
      92     8951     8953 1
      93    10949    10951 1
      94     7196     7198 1
      95    12785    12787 1
      96     5357     5359 1
      97     9224     9226 1
      98     1926     1927 1
      99     3715     3696 1
     100     1789     1790 1
     101     1517     1518 1
     102     3226     3223 1
     103     6680     6682 1
     104     6635     6636 1
     105     2481     2484 1
     106     3815     3814 1
     107     5726     5727 1
     108     8762     8764 1
     109     5576     5577 1
     110     2480     2464 1
     111    11369    11371 1
     112    10151    10152 1
     113      350      349 1
     114     5516     5518 1
     115     5276     5278 1
     116     2988     2989 1
     117     7757     7759 1
     118     9068     9070 1
     119     2986     2987 1
     120     3062     3063 1
     121     2609     2610 1
     122     1964     1965 1
     123     3531     3512 1
     124     1469     1470 1
     125     4298     4299 1
     126     4241     4243 1
     127    10772    10773 1
     128      288      284 1
     129     4443     4444 1
     130     8669     8671 1
     131     3660     3659 1
     132     8588     8590 1
     133    10748    10750 1
     134     8507     8509 1
     135     6752     6754 1
     136      475      476 1
     137    12584    12586 1
     138     6671     6673 1
     139    10157    10159 1
     140     5969     5971 1
     141       54       53 1
     142     8765     8767 1
     143     2892     2893 1
     144     2968     2969 1
     145     6383     6385 1
     146    10217    10219 1
     147    11567    11569 1
     148     8678     8680 1
     149     7976     7978 1
     150     9488     9490 1
     151     8138     8140 1
     152     7733     7735 1
     153     6761     6763 1
     154    12107    12109 1
     155     9140     9141 1
     156     6545     6546 1
     157      967      969 1
     158      723      704 1
     159     2697     2698 1
     160     4221     4222 1
     161     4435     4436 1
     162     1488     1487 1
     163     4918     4919 1
     164     2600     2599 1
     165     2825     2821 1
     166    12701    12703 1
     167     2093     2094 1
     168     1164     1162 1
     169     2537     2519 1
     170    11408    11410 1
     171     3812     3811 1
     172     1489     1490 1
     173     2305     2306 1
     174     1663     1664 1
     175     2363     2364 1
     176    11627    11629 1
     177     2757     2758 1
     178     9497     9499 1
     179     6047     6049 1
     180      447      428 1
     181     4081     4084 1
     182     7790     7791 1
     183     2434     2433 1
     184      789      791 1
     185     1789     1788 1
     186     1135     1138 1
     187     1211     1214 1
     188     5141     5144 1
     189     9854     9856 1
     190      744      748 1
     191     1376     1377 1
     192     1452     1453 1
     193      627      628 1
     194     2970     2971 1
     195     4805     4806 1
     196    10919    10921 1
     197     7064     7066 1
     198    12734    12736 1
     199     8279     8281 1
     200    12194    12196 1
     201     4401     4402 1
     202     4887     4888 1
     203     5043     5044 1
     204    12491    12493 1
     205    10655    10657 1
     206    10817    10819 1
     207    10430    10432 1
     208     5101     5102 1
     209      629      630 1
     210      589      590 1
     211     2135     2136 1
     212     2407     2408 1
     213     4465     4466 1
     214     5110     5111 1
     215     4565     4567 1
     216     5213     5215 1
     217     5435     5436 1
     218     4391     4392 1
     219     3649     3650 1
     220     4076     4077 1
     221     7031     7032 1
     222    12764    12766 1
     223     8930     8932 1
     224     5432     5433 1
     225     5504     5505 1
     226    11027    11028 1
     227    10928    10930 1
     228     7175     7177 1
     229    12377    12378 1
     230    10136    10137 1
     231     9086     9088 1
     232     8150     8152 1
     233    12245    12247 1
     234     3422     3421 1
     235     9746     9747 1
     236     7352     7354 1
     237     4751     4752 1
     238     9107     9109 1
     239     7271     7273 1
     240    11186    11188 1
     241     1374     1375 1
     242     7109     7111 1
     243     9350     9352 1
     244     5023     5024 1
     245     7514     7516 1
     246     5375     5377 1
     247     6695     6696 1
     248    11960    11961 1
     249     5354     5356 1
     250     1778     1779 1
     251     4011     4013 1
     252     2397     2398 1
     253     1911     1912 1
     254     3989     3991 1
     255     7871     7873 1
     256     6116     6118 1
     257     6494     6496 1
     258    10328    10330 1
     259     5954     5956 1
     260    11867    11869 1
     261     3754     3753 1
     262     8411     8413 1
     263    10670    10672 1
     264    12911    12913 1
     265     7079     7081 1
     266    10832    10834 1
     267    12668    12670 1
     268    12506    12508 1
     269     6836     6838 1
     270     4781     4782 1
     271     8915     8917 1
     272     8834     8836 1
     273     1479     1480 1
     274     1886     1887 1
     275     3729     3732 1
     276      381      382 1
     277     7157     7158 1
     278     3905     3904 1
     279      927      929 1
     280     3628     3629 1
     281     1608     1609 1
     282     1822     1823 1
     283     2467     2468 1
     284     1819     1820 1
     285     2534     2533 1
     286     3925     3926 1
     287     2253     2254 1
     288     3015     3016 1
     289      661      657 1
     290      418      415 1
     291      315      316 1
     292     2309     2310 1
     293     3131     3132 1
     294      364      363 1
     295     5065     5066 1
     296     5438     5439 1
     297     1532     1531 1
     298     6647     6648 1
     299     1967     1968 1
     300     2557     2558 1
     301     1756     1757 1
     302     3395     3396 1
     303     2390     2391 1
     304     1791     1792 1
     305     6029     6030 1
     306     1519     1520 1
     307     2182     2183 1
     308      484      483 1
     309    12746    12747 1
     310     3229     3233 1
     311     1089     1092 1
     312     3635     3634 1
     313     1992     1993 1
     314     2603     2604 1
     315     5297     5299 1
     316     4328     4327 1
     317     9491     9493 1
     318     2639     2640 1
     319     2242     2243 1
     320     1597     1598 1
     321     3953     3952 1
     322     2245     2246 1
     323     2271     2272 1
     324     1626     1627 1
     325     2115     2116 1
     326     1849     1850 1
     327     2494     2495 1
     328     3400     3399 1
     329      236      239 1
     330     7619     7620 1
     331     9455     9456 1
     332     7700     7701 1
     333     1731     1732 1
     334     9374     9375 1
     335     7538     7539 1
     336     9536     9537 1
     337    11372    11373 1
     338    11453    11454 1
     339     3847     3848 1
     340     2907     2909 1
     341     9230     9231 1
     342     3274     3273 1
     343     4816     4800 1
     344     8852     8854 1
     345     6503     6505 1
     346     4456     4440 1
     347     9776     9778 1
     348     7241     7242 1
     349    11075    11076 1
     350    10559    10560 1
     351     6527     6529 1
     352     3269     3271 1
     353     5378     5379 1
     354     1055     1056 1
     355      578      579 1
     356     5351     5352 1
     357    11474    11476 1
     358     9557     9559 1
     359    10097    10099 1
     360     8018     8020 1
     361     9719     9721 1
     362     9935     9937 1
     363     7640     7642 1
     364     6374     6375 1
     365     7334     7336 1
     366     7091     7093 1
     367       54       58 1
     368     3438     3437 1
     369    11168    11170 1
     370     7967     7968 1
     371    11249    11251 1
     372     9209     9210 1
     373     8129     8130 1
     374     9089     9091 1
     375     9221     9223 1
     376     6353     6354 1
     377     6272     6273 1
     378    10268    10269 1
     379    12185    12186 1
     380    10349    10350 1
     381     1405     1406 1
     382     1127     1128 1
     383     4202     4203 1
     384     4509     4510 1
     385     4581     4582 1
     386     2156     2140 1
     387     5032     5016 1
     388     1513     1514 1
     389     2002     2003 1
     390     1507     1508 1
     391     1157     1160 1
     392     1355     1356 1
     393    12320    12321 1
     394     3082     3083 1
     395     3625     3626 1
     396     3939     3940 1
     397     4942     4943 1
     398     1534     1535 1
     399     4694     4693 1
     400      955      956 1
     401      689      690 1
     402     3404     3403 1
     403     4941     4942 1
     404     3768     3769 1
     405     2927     2928 1
     406     2585     2586 1
     407     6701     6703 1
     408    12020    12022 1
     409    10265    10267 1
     410    12290    12292 1
     411    10535    10537 1
     412     8456     8458 1
     413     6269     6271 1
     414    12182    12184 1
     415     1580     1564 1
     416    10052    10053 1
     417    12572    12573 1
     418     7556     7558 1
     419      124      123 1
     420     1890     1891 1
     421      835      837 1
     422     6350     6352 1
     423     4947     4948 1
     424     5333     5334 1
     425     3605     3607 1
     426      383      384 1
     427     4348     4332 1
     428     1845     1846 1
     429     4089     4090 1
     430     2692     2693 1
     431     3172     3173 1
     432     9281     9282 1
     433     7364     7365 1
     434     5609     5610 1
     435    11198    11199 1
     436    12359    12360 1
     437    12197    12198 1
     438      336      334 1
     439    10118    10119 1
     440     1747     1748 1
     441     4995     4996 1
     442      867      868 1
     443    12350    12352 1
     444     5151     5150 1
     445     3550     3549 1
     446     4679     4680 1
     447      919      920 1
     448      973      976 1
     449     1185     1186 1
     450     4812     4813 1
     451      995      996 1
     452    12062    12064 1
     453     2013     2015 1
     454    12596    12597 1
     455     5807     5809 1
     456     9641     9643 1
     457    10721    10723 1
     458     8600     8601 1
     459     8681     8682 1
     460     6764     6765 1
     461     5366     5368 1
     462     3156     3157 1
     463    12800    12802 1
     464     8804     8806 1
     465     3855     3856 1
     466     4172     4169 1
     467     7625     7627 1
     468     7544     7546 1
     469     7706     7708 1
     470    11378    11380 1
     471     9461     9463 1
     472     9380     9382 1
     473     8906     8907 1
     474     6827     6828 1
     475     9542     9544 1
     476    11459    11461 1
     477     3667     3669 1
     478     2694     2695 1
     479     4313     4314 1
     480     1433     1436 1
     481    11327    11329 1
     482     1502     1503 1
     483     3462     3459 1
     484    11978    11980 1
     485     6593     6594 1
     486    10427    10428 1
     487    11804    11805 1
     488    11642    11643 1
     489     6215     6216 1
     490     6431     6432 1
     491    12344    12345 1
     492     8348     8349 1
     493    10589    10590 1
     494     2993     2994 1
     495     5861     5863 1
     496     3382     3383 1
     497     5810     5811 1
     498     6035     6036 1
     499     1545     1547 1
     500     1314     1313 1
     501       76       75 1
     502     4374     4375 1
     503     4802     4803 1
     504      581      582 1
     505     8921     8923 1
     506     3269     3270 1
     507     1441     1442 1
     508    11519    11521 1
     509     9602     9604 1
     510     5768     5770 1
     511     9494     9496 1
     512     9764     9766 1
     513     7415     7417 1
     514     5660     5662 1
     515     1117     1118 1
     516    11681    11683 1
     517     3505     3509 1
     518     7889     7890 1
     519     4289     4290 1
     520     4778     4779 1
     521     4989     4990 1
     522     2157     2159 1
     523     5271     5270 1
     524     1369     1370 1
     525     5561     5562 1
     526     4925     4927 1
     527     3419     3423 1
     528     3800     3801 1
     529    12080    12081 1
     530     8246     8247 1
     531     6329     6330 1
     532     6086     6087 1
     533    12242    12243 1
     534     8327     8328 1
     535    12161    12162 1
     536     3857     3858 1
     537    11999    12000 1
     538     6248     6249 1
     539    12650    12652 1
     540      945      946 1
     541     3559     3560 1
     542     2699     2700 1
     543      277      278 1
     544      972      971 1
     545     8738     8739 1
     546      261      264 1
     547     1376     1375 1
     548     1452     1451 1
     549    12443    12444 1
     550     6854     6855 1
     551      216      215 1
     552    11507    11509 1
     553     7430     7432 1
     554     9428     9430 1
     555    11345    11347 1
     556     5675     5677 1
     557     3384     3383 1
     558     9590     9592 1
     559     9266     9268 1
     560     9509     9511 1
     561    11426    11428 1
     562     3624     3621 1
     563    11120    11121 1
     564     3460     3464 1
     565     1181     1183 1
     566     3632     3633 1
     567     3915     3913 1
     568     1990     1991 1
     569    11699    11700 1
     570     1764     1765 1
     571     3566     3565 1
     572     4730     4731 1
     573     6641     6642 1
     574    10727    10728 1
     575    11177    11178 1
     576     7343     7344 1
     577     7100     7101 1
     578    11258    11259 1
     579     9341     9342 1
     580     9098     9099 1
     581     7505     7506 1
     582    11096    11097 1
     583     7262     7263 1
     584     9179     9180 1
     585     2496     2497 1
     586     2631     2635 1
     587     3685     3683 1
     588     3976     3977 1
     589     4352     4353 1
     590     1701     1702 1
     591      577      578 1
     592      770      771 1
     593     1759     1760 1
     594     4246     4247 1
     595    10196    10197 1
     596    11114    11115 1
     597     1289     1293 1
     598    10499    10500 1
     599     8501     8502 1
     600     8663     8664 1
     601    10742    10743 1
     602     6665     6666 1
     603    12578    12579 1
     604     8582     8583 1
     605     6746     6747 1
     606     3587     3586 1
     607     3934     3935 1
     608     3216     3217 1
     609    12623    12625 1
     610    12665    12666 1
     611     4754     4755 1
     612       53       56 1
     613     2004     2005 1
     614     2215     2216 1
     615     1729     1730 1
     616     1515     1516 1
     617     9683     9684 1
     618     1925     1907 1
     619     2491     2492 1
     620    10139    10140 1
     621     2335     2336 1
     622     3036     3037 1
     623     3200     3201 1
     624     3303     3302 1
     625     1935     1936 1
     626     2580     2581 1
     627     2155     2156 1
     628    12059    12061 1
     629     2723     2724 1
     630     2786     2785 1
     631     3709     3708 1
     632     2058     2059 1
     633      367      368 1
     634      340      341 1
     635     8651     8653 1
     636    12758    12760 1
     637     5537     5538 1
     638     3894     3893 1
     639     3909     3908 1
     640     2740     2741 1
     641     9176     9178 1
     642     1111     1112 1
     643     2000     1999 1
     644     1395     1396 1
     645     2460     2461 1
     646     7397     7399 1
     647     7316     7318 1
     648     7154     7156 1
     649    11231    11233 1
     650     9152     9154 1
     651    10988    10990 1
     652     9395     9397 1
     653     9452     9453 1
     654    11369    11370 1
     655     6158     6159 1
     656     7697     7698 1
     657     9992     9993 1
     658    11909    11910 1
     659     7535     7536 1
     660     3157     3158 1
     661    10154    10155 1
     662     5765     5766 1
     663      875      876 1
     664     7082     7083 1
     665     6515     6516 1
     666     6596     6597 1
     667    12509    12510 1
     668    10673    10674 1
     669    12914    12915 1
     670     8351     8352 1
     671    12671    12672 1
     672    10592    10593 1
     673     8918     8919 1
     674     4937     4938 1
     675     4292     4293 1
     676     1522     1523 1
     677     2167     2168 1
     678     2439     2440 1
     679     2161     2162 1
     680     1454     1455 1
     681     4807     4808 1
     682     4810     4811 1
     683     1457     1460 1
     684     3995     3994 1
     685     1151     1154 1
     686     4640     4637 1
     687     1225     1224 1
     688     1149     1148 1
     689     1071     1075 1
     690     2337     2339 1
     691     7247     7248 1
     692     8813     8814 1
     693     3593     3591 1
     694     2124     2125 1
     695     4210     4211 1
     696     1543     1544 1
     697     8330     8332 1
     698     7583     7584 1
     699     4923     4924 1
     700     4917     4918 1
     701     4434     4435 1
     702     4909     4910 1
     703     4869     4870 1
     704     4083     4064 1
     705     4478     4479 1
     706     1440     1438 1
     707     5384     5386 1
     708     6008     6010 1
     709     5525     5527 1
     710    11759    11761 1
     711     9842     9844 1
     712     8087     8089 1
     713     7925     7927 1
     714     7763     7765 1
     715     6542     6544 1
     716     7601     7603 1
     717     1709     1691 1
     718     5819     5820 1
     719     3410     3407 1
     720    12680    12681 1
     721    11780    11782 1
     722    11147    11149 1
     723       65       64 1
     724      362      361 1
     725     2751     2752 1
     726     2754     2755 1
     727     1682     1683 1
     728     8720     8722 1
     729     3782     3786 1
     730     3781     3782 1
     731     3927     3928 1
     732      697      701 1
     733      138      137 1
     734     3145     3148 1
     735     8747     8748 1
     736    12338    12339 1
     737     8342     8343 1
     738     6425     6426 1
     739    10583    10584 1
     740    10421    10422 1
     741     8423     8424 1
     742     6506     6507 1
     743     2023     2024 1
     744     6587     6588 1
     745      270      269 1
     746     8879     8880 1
     747    10151    10153 1
     748     3380     3379 1
     749     5984     5986 1
     750     4071     4072 1
     751     2876     2877 1
     752     3148     3149 1
     753     4503     4504 1
     754     2340     2341 1
     755     5055     5056 1
     756     2901     2902 1
     757     5122     5123 1
     758     3230     3234 1
     759     4472     4473 1
     760     5117     5118 1
     761     1270     1271 1
     762     6914     6915 1
     763     2933     2914 1
     764     4412     4413 1
     765     5057     5058 1
     766     1053     1054 1
     767     4797     4798 1
     768    10235    10237 1
     769     8480     8482 1
     770    10397    10399 1
     771     7940     7942 1
     772     7778     7780 1
     773     4201     4202 1
     774     1977     1979 1
     775      155      153 1
     776     4635     4636 1
     777     2693     2694 1
     778     4272     4271 1
     779     3596     3599 1
     780     3892     3893 1
     781      599      601 1
     782     1613     1614 1
     783     3819     3820 1
     784     2258     2259 1
     785     2515     2516 1
     786     3168     3169 1
     787     2893     2894 1
     788     2982     2983 1
     789    11411    11412 1
     790      458      457 1
     791     1889     1871 1
     792    11030    11032 1
     793     2828     2829 1
     794     3897     3899 1
     795      172      169 1
     796     1712     1713 1
     797     7250     7251 1
     798     7307     7309 1
     799     1997     1998 1
     800     8519     8521 1
     801     1105     1107 1
     802     3224     3223 1
     803     3217     3218 1
     804     3985     3984 1
     805     1045     1026 1
     806     1029     1025 1
     807     1271     1272 1
     808     4473     4474 1
     809     3873     3874 1
     810     4951     4950 1
     811     3656     3657 1
     812     3190     3188 1
     813      231      234 1
     814     1171     1172 1
     815     3602     3598 1
     816     4823     4824 1
     817     4450     4451 1
     818    12230    12232 1
     819      870      871 1
     820     4419     4420 1
     821     4141     4142 1
     822      571      572 1
     823     5264     5265 1
     824     3770     3771 1
     825     4997     4998 1
     826      530      531 1
     827     7679     7680 1
     828     8651     8652 1
     829    10649    10650 1
     830    10577    10579 1
     831     9677     9678 1
     832    11594    11595 1
     833     6419     6421 1
     834    12404    12405 1
     835    10568    10569 1
     836     5843     5844 1
     837     6500     6502 1
     838     6080     6082 1
     839     1223     1224 1
     840     1289     1291 1
     841     3544     3543 1
     842     8555     8556 1
     843     7286     7287 1
     844    12638    12640 1
     845     8378     8380 1
     846     7217     7219 1
     847     9134     9136 1
     848     6137     6139 1
     849    11051    11053 1
     850     3552     3551 1
     851     8216     8218 1
     852     6299     6301 1
     853     1933     1932 1
     854     9746     9748 1
     855     3299     3302 1
     856     5519     5521 1
     857     4709     4710 1
     858     5279     5281 1
     859     1427     1429 1
     860     6578     6579 1
     861      153      156 1
     862     4932     4933 1
     863     4783     4781 1
     864     5149     5150 1
     865     4504     4505 1
     866    11960    11962 1
     867     4724     4725 1
     868     6023     6025 1
     869     3844     3845 1
     870     5429     5431 1
     871    12299    12301 1
     872    10544    10546 1
     873      604      607 1
     874     9383     9385 1
     875     5549     5551 1
     876     7628     7630 1
     877     8465     8467 1
     878     6710     6712 1
     879     9545     9547 1
     880     3406     3405 1
     881     7880     7881 1
     882    10499    10501 1
     883     2816     2820 1
     884     8501     8503 1
     885     8663     8665 1
     886     8582     8584 1
     887    12578    12580 1
     888     3736     3740 1
     889    10742    10744 1
     890     1526     1527 1
     891     7169     7170 1
     892    11003    11004 1
     893      624      625 1
     894     3115     3116 1
     895     3583     3584 1
     896     1828     1829 1
     897     2473     2474 1
     898     3821     3822 1
     899     2315     2316 1
     900     3917     3918 1
     901     1710     1711 1
     902     4687     4688 1
     903     1670     1671 1
     904     1595     1596 1
     905     2240     2241 1
     906     6992     6993 1
     907     3064     3065 1
     908     3257     3258 1
     909     1249     1251 1
     910    10964    10965 1
     911     9431     9433 1
     912     5405     5406 1
     913     2697     2696 1
     914     5288     5290 1
     915      399      402 1
     916     2225     2226 1
     917     4297     4279 1
     918    12794    12795 1
     919    10715    10716 1
     920     8798     8799 1
     921     9635     9636 1
     922    12632    12633 1
     923     5801     5802 1
     924     6881     6882 1
     925    11714    11715 1
     926     2841     2822 1
     927     3549     3545 1
     928       19       18 1
     929    10559    10561 1
     930     7886     7888 1
     931     5063     5064 1
     932     8642     8644 1
     933     6725     6727 1
     934     3643     3646 1
     935     5645     5647 1
     936     7724     7726 1
     937     5005     5006 1
     938     8156     8158 1
     939     3011     3012 1
     940    12422    12424 1
     941     3688     3691 1
     942     4176     4177 1
     943      529      530 1
     944     4234     4235 1
     945     4445     4446 1
     946     4118     4119 1
     947     1955     1956 1
     948     1604     1605 1
     949     3695     3696 1
     950      430      429 1
     951     2969     2970 1
     952        7       10 1
     953      843      845 1
     954    11966    11967 1
     955     7970     7971 1
     956    10211    10212 1
     957     8132     8133 1
     958     6377     6378 1
     959     8672     8673 1
     960     6755     6756 1
     961     8510     8511 1
     962    10049    10050 1
     963    10751    10752 1
     964     3911     3910 1
     965      466      469 1
     966    10178    10180 1
     967     5345     5346 1
     968     5465     5466 1
     969     2737     2738 1
     970     9614     9616 1
     971      391      390 1
     972     4953     4954 1
     973     4204     4188 1
     974     8522     8523 1
     975     2788     2789 1
     976     3803     3802 1
     977     4069     4068 1
     978     5474     5475 1
     979     5495     5496 1
     980     2542     2543 1
     981     4457     4459 1
     982     2671     2673 1
     983     2229     2231 1
     984    11573    11575 1
     985    11843    11845 1
     986     9656     9658 1
     987     5822     5824 1
     988     6092     6094 1
     989     4236     4237 1
     990     4392     4393 1
     991     5037     5038 1
     992     7847     7849 1
     993     5930     5932 1
     994     1499     1498 1
     995    10214    10215 1
     996     7973     7974 1
     997     8135     8136 1
     998    11132    11133 1
     999     9215     9216 1
    1000     1753     1754 1
    1001    10970    10971 1
    1002    12887    12888 1
    1003     6380     6381 1
    1004     7496     7498 1
    1005      323      325 1
    1006      547      546 1
    1007     3843     3844 1
    1008     3805     3806 1
    1009     5339     5340 1
    1010     5291     5292 1
    1011     2461     2462 1
    1012     2874     2875 1
    1013     2798     2799 1
    1014     6689     6691 1
    1015    10523    10525 1
    1016     8444     8446 1
    1017    12278    12280 1
    1018     9362     9364 1
    1019     9524     9526 1
    1020     7607     7609 1
    1021    11441    11443 1
    1022     2034     2035 1
    1023     7934     7935 1
    1024     3312     3313 1
    1025     3914     3913 1
    1026      320      321 1
    1027    12644    12646 1
    1028      788      791 1
    1029      347      346 1
    1030     1231     1232 1
    1031      965      966 1
    1032     1111     1113 1
    1033      158      157 1
    1034     4594     4593 1
    1035     1749     1750 1
    1036     5184     5183 1
    1037     2394     2395 1
    1038     2620     2621 1
    1039     1975     1976 1
    1040     3841     3842 1
    1041    11435    11437 1
    1042     9518     9520 1
    1043     2573     2555 1
    1044     9275     9277 1
    1045     7439     7441 1
    1046    11516    11518 1
    1047     9599     9601 1
    1048    11354    11356 1
    1049     5837     5839 1
    1050    11588    11590 1
    1051     7673     7675 1
    1052     5594     5596 1
    1053     9671     9673 1
    1054     1427     1431 1
    1055    11669    11671 1
    1056     2651     2652 1
    1057     2823     2824 1
    1058     3352     3353 1
    1059      276      275 1
    1060    11963    11965 1
    1061      422      426 1
    1062     3177     3178 1
    1063      553      555 1
    1064      386      383 1
    1065     3301     3282 1
    1066      187      185 1
    1067    10934    10935 1
    1068    12770    12771 1
    1069     8936     8937 1
    1070     7181     7182 1
    1071      204      203 1
    1072      436      435 1
    1073      184      183 1
    1074     5230     5231 1
    1075     8144     8145 1
    1076     3700     3701 1
    1077      508      507 1
    1078    10985    10986 1
    1079     5342     5343 1
    1080     7055     7056 1
    1081     3812     3813 1
    1082     7121     7122 1
    1083     9038     9039 1
    1084     7148     7149 1
    1085     9146     9147 1
    1086     8876     8877 1
    1087    11225    11226 1
    1088     8957     8958 1
    1089     7391     7392 1
    1090     9389     9390 1
    1091    10874    10875 1
    1092     3979     3980 1
    1093     5008     5009 1
    1094     4975     4976 1
    1095      974      978 1
    1096     5021     5022 1
    1097     1173     1174 1
    1098     8534     8535 1
    1099     3071     3052 1
    1100    10085    10086 1
    1101     6062     6063 1
    1102     9896     9897 1
    1103     5900     5901 1
    1104    11840    11841 1
    1105     7817     7818 1
    1106    12002    12003 1
    1107     3142     3144 1
    1108     2941     2942 1
    1109     3017     3018 1
    1110     3164     3165 1
    1111     8057     8059 1
    1112     6518     6520 1
    1113    11891    11893 1
    1114     9974     9976 1
    1115     9812     9814 1
    1116     8435     8437 1
    1117     8759     8761 1
    1118    12053    12055 1
    1119     4158     4159 1
    1120     5026     5027 1
    1121     1064     1067 1
    1122     1450     1451 1
    1123     4662     4663 1
    1124    11366    11367 1
    1125      787      783 1
    1126     4863     4864 1
    1127      962      963 1
    1128     3163     3144 1
    1129      318      317 1
    1130     4805     4804 1
    1131     2481     2483 1
    1132     1937     1938 1
    1133     9593     9594 1
    1134    10787    10789 1
    1135     1493     1494 1
    1136     3845     3846 1
    1137     3973     3975 1
    1138     2721     2722 1
    1139     2648     2649 1
    1140     2763     2766 1
    1141     3177     3180 1
    1142     3102     3103 1
    1143     2760     2761 1
    1144     7892     7894 1
    1145     8648     8650 1
    1146     4901     4902 1
    1147     4311     4312 1
    1148     4513     4495 1
    1149     3425     3424 1
    1150     3751     3750 1
    1151      794      796 1
    1152    12023    12025 1
    1153    12347    12348 1
    1154      902      903 1
    1155      365      364 1
    1156     4753     4754 1
    1157     5242     5243 1
    1158     9314     9316 1
    1159     5181     5182 1
    1160    11393    11395 1
    1161     7559     7561 1
    1162     5723     5725 1
    1163    11312    11314 1
    1164     5218     5217 1
    1165     7913     7914 1
    1166     8075     8076 1
    1167     9290     9291 1
    1168     7751     7752 1
    1169     7373     7374 1
    1170    11747    11748 1
    1171     5618     5619 1
    1172     9830     9831 1
    1173     5996     5997 1
    1174     7589     7590 1
    1175     3413     3416 1
    1176     2609     2591 1
    1177     2005     2006 1
    1178     3596     3595 1
    1179     4373     4374 1
    1180     4008     4005 1
    1181     5411     5412 1
    1182     5561     5563 1
    1183     1859     1860 1
    1184      811      812 1
    1185     4058     4062 1
    1186      134      133 1
    1187     8462     8463 1
    1188    10271    10272 1
    1189     6707     6708 1
    1190    12188    12189 1
    1191     6275     6276 1
    1192    10541    10542 1
    1193    12296    12297 1
    1194     3297     3298 1
    1195     8312     8314 1
    1196    12026    12027 1
    1197     6926     6928 1
    1198     2037     2038 1
    1199      942      943 1
    1200     4768     4769 1
    1201    11999    12001 1
    1202     5081     5082 1
    1203     2254     2255 1
    1204    12077    12079 1
    1205     8243     8245 1
    1206     5786     5788 1
    1207    11537    11539 1
    1208     9620     9622 1
    1209    11699    11701 1
    1210     9782     9784 1
    1211     6326     6328 1
    1212    12239    12241 1
    1213     7949     7950 1
    1214     2056     2055 1
    1215     5546     5548 1
    1216     4652     4653 1
    1217     3495     3496 1
    1218     1035     1036 1
    1219      687      688 1
    1220     1521     1520 1
    1221     4553     4554 1
    1222      941      942 1
    1223     4767     4768 1
    1224     8846     8847 1
    1225     4044     4045 1
    1226     3127     3128 1
    1227     2849     2850 1
    1228      979      980 1
    1229     9635     9637 1
    1230    12794    12796 1
    1231     8798     8800 1
    1232     4017     4021 1
    1233    12632    12634 1
    1234     5801     5803 1
    1235     6881     6883 1
    1236    10715    10717 1
    1237    11714    11716 1
    1238     5264     5266 1
    1239      264      265 1
    1240     2734     2735 1
    1241     1939     1940 1
    1242     1667     1668 1
    1243     2643     2644 1
    1244     2092     2093 1
    1245     1719     1720 1
    1246     3482     3481 1
    1247     1203     1207 1
    1248     8585     8586 1
    1249    10745    10746 1
    1250     4529     4531 1
    1251     8666     8667 1
    1252     8990     8991 1
    1253    11069    11070 1
    1254     6911     6912 1
    1255    12824    12825 1
    1256     6668     6669 1
    1257    10502    10503 1
    1258     7235     7236 1
    1259     6641     6643 1
    1260     4411     4412 1
    1261     5010     5011 1
    1262     4139     4138 1
    1263    10253    10254 1
    1264     6041     6042 1
    1265     7796     7797 1
    1266    12008    12009 1
    1267     6257     6258 1
    1268     9875     9876 1
    1269     5879     5880 1
    1270     5618     5620 1
    1271     3985     3986 1
    1272     2781     2782 1
    1273    11207    11209 1
    1274     4497     4498 1
    1275     4057     4060 1
    1276     6359     6360 1
    1277     2655     2657 1
    1278     3554     3551 1
    1279     3971     3972 1
    1280     4689     4690 1
    1281    12437    12439 1
    1282    11201    11202 1
    1283     7367     7368 1
    1284     9284     9285 1
    1285     8069     8070 1
    1286     5612     5613 1
    1287     7907     7908 1
    1288     6557     6558 1
    1289    10229    10230 1
    1290     7745     7746 1
    1291    11741    11742 1
    1292     3667     3670 1
    1293     1273     1274 1
    1294     5444     5445 1
    1295     4936     4937 1
    1296     3215     3214 1
    1297     6935     6936 1
    1298      151      155 1
    1299      244      243 1
    1300     3834     3833 1
    1301     2066     2065 1
    1302     3468     3467 1
    1303     2007     2008 1
    1304     2010     2011 1
    1305     5441     5443 1
    1306     1735     1736 1
    1307     1738     1739 1
    1308    11753    11754 1
    1309     1019     1022 1
    1310    12380    12381 1
    1311     1338     1335 1
    1312      647      645 1
    1313      353      356 1
    1314     2437     2438 1
    1315     4673     4675 1
    1316     2116     2117 1
    1317     3007     3009 1
    1318     5321     5322 1
    1319     3069     3071 1
    1320      497      496 1
    1321      573      572 1
    1322     5981     5983 1
    1323     7886     7887 1
    1324     9779     9780 1
    1325     3733     3734 1
    1326    10958    10960 1
    1327     5450     5451 1
    1328     2331     2332 1
    1329     2539     2540 1
    1330    11798    11800 1
    1331     6209     6211 1
    1332    11636    11638 1
    1333      197      198 1
    1334     4395     4396 1
    1335     4667     4668 1
    1336      730      731 1
    1337     4239     4240 1
    1338     6245     6246 1
    1339     9701     9702 1
    1340     6083     6084 1
    1341    12158    12159 1
    1342     5867     5868 1
    1343     5197     5198 1
    1344    11618    11619 1
    1345     5705     5706 1
    1346     8162     8163 1
    1347     8324     8325 1
    1348    11087    11089 1
    1349     8750     8751 1
    1350      300      299 1
    1351     4048     4049 1
    1352     3088     3085 1
    1353     1296     1300 1
    1354     4070     4071 1
    1355     1388     1392 1
    1356     3418     3414 1
    1357     2567     2568 1
    1358     5208     5209 1
    1359     2690     2691 1
    1360     7247     7249 1
    1361     8813     8815 1
    1362     4865     4866 1
    1363     5079     5080 1
    1364     2866     2868 1
    1365      728      729 1
    1366     1009     1010 1
    1367     4127     4128 1
    1368     3779     3780 1
    1369     1255     1256 1
    1370    10439    10441 1
    1371    10883    10884 1
    1372     1509     1512 1
    1373     1783     1784 1
    1374     1569     1570 1
    1375    10109    10110 1
    1376      429      432 1
    1377     2107     2108 1
    1378     1905     1908 1
    1379      415      419 1
    1380    10856    10857 1
    1381     3616     3617 1
    1382    11609    11610 1
    1383     9692     9693 1
    1384     8612     8613 1
    1385    10691    10692 1
    1386    12608    12609 1
    1387    12446    12447 1
    1388     5858     5859 1
    1389     6857     6858 1
    1390     2874     2873 1
    1391     5696     5697 1
    1392     2484     2485 1
    1393     4086     4087 1
    1394    12374    12375 1
    1395     2980     2981 1
    1396     2790     2791 1
    1397     2589     2591 1
    1398    10127    10129 1
    1399     4934     4935 1
    1400     1181     1184 1
    1401     5197     5179 1
    1402     1387     1390 1
    1403     4373     4372 1
    1404      708      709 1
    1405      632      633 1
    1406      125      123 1
    1407     2860     2863 1
    1408     5169     5170 1
    1409     3053     3054 1
    1410     5372     5373 1
    1411     4849     4850 1
    1412     4418     4419 1
    1413     8372     8374 1
    1414     4360     4361 1
    1415     7211     7213 1
    1416    11045    11047 1
    1417     6293     6295 1
    1418     9128     9130 1
    1419     8210     8212 1
    1420     6131     6133 1
    1421     9404     9406 1
    1422     4149     4150 1
    1423     5336     5338 1
    1424    12119    12120 1
    1425      511      512 1
    1426      453      454 1
    1427     3810     3811 1
    1428     3171     3172 1
    1429     2472     2473 1
    1430      361      360 1
    1431     3177     3179 1
    1432    12695    12697 1
    1433      553      556 1
    1434     7304     7305 1
    1435     2553     2555 1
    1436     4030     4029 1
    1437     6227     6229 1
    1438    12128    12129 1
    1439     1566     1567 1
    1440    10373    10374 1
    1441     8294     8295 1
    1442     6539     6540 1
    1443    11414    11416 1
    1444     2409     2411 1
    1445     1186     1187 1
    1446      421      425 1
    1447     2715     2716 1
    1448    12674    12675 1
    1449    10406    10407 1
    1450     4650     4649 1
    1451     2516     2500 1
    1452      826      827 1
    1453     4408     4409 1
    1454     1400     1401 1
    1455     1092     1093 1
    1456     5025     5026 1
    1457     4380     4381 1
    1458     5053     5054 1
    1459     1168     1169 1
    1460       98       97 1
    1461      531      532 1
    1462      455      456 1
    1463     8918     8920 1
    1464     7763     7764 1
    1465      580      581 1
    1466      504      505 1
    1467     1536     1537 1
    1468     4772     4771 1
    1469     1139     1138 1
    1470     3563     3562 1
    1471     9437     9438 1
    1472     1653     1655 1
    1473     3079     3080 1
    1474     2804     2805 1
    1475     9326     9327 1
    1476     7760     7761 1
    1477     6005     6006 1
    1478    11756    11757 1
    1479     9839     9840 1
    1480     9920     9921 1
    1481     8003     8004 1
    1482    10361    10363 1
    1483    11279    11281 1
    1484     9758     9759 1
    1485     8282     8284 1
    1486      935      937 1
    1487     1220     1221 1
    1488     1422     1423 1
    1489     4334     4335 1
    1490     1144     1145 1
    1491      859      861 1
    1492     4650     4651 1
    1493     1096     1097 1
    1494     6812     6814 1
    1495     6974     6976 1
    1496    12563    12565 1
    1497    12806    12808 1
    1498     7244     7246 1
    1499     8729     8731 1
    1500     6920     6922 1
    1501     8999     9001 1
    1502    10727    10729 1
    1503     4451     4452 1
    1504     1116     1118 1
    1505     5303     5305 1
    1506     9929     9931 1
    1507     1827     1828 1
    1508     4270     4271 1
    1509       22       23 1
    1510      823      822 1
    1511     4333     4315 1
    1512     4043     4044 1
    1513     2848     2849 1
    1514     2131     2132 1
    1515     9680     9682 1
    1516    11597    11599 1
    1517     5846     5848 1
    1518      751      754 1
    1519     7682     7684 1
    1520    11678    11680 1
    1521     3681     3680 1
    1522     5603     5605 1
    1523     9473     9474 1
    1524     3989     3990 1
    1525     5990     5992 1
    1526    11201    11203 1
    1527     9284     9286 1
    1528     7367     7369 1
    1529     8069     8071 1
    1530     7745     7747 1
    1531     7907     7909 1
    1532     9824     9826 1
    1533     3743     3744 1
    1534    10229    10231 1
    1535     3597     3599 1
    1536     3045     3046 1
    1537    10055    10057 1
    1538     2120     2104 1
    1539     1562     1563 1
    1540     1773     1774 1
    1541     2207     2208 1
    1542     2262     2263 1
    1543     3511     3512 1
    1544      953      934 1
    1545     6326     6327 1
    1546     2418     2419 1
    1547     4517     4516 1
    1548      651      653 1
    1549     3808     3809 1
    1550     6992     6994 1
    1551     4019     4022 1
    1552     7280     7282 1
    1553     9308     9309 1
    1554    11387    11388 1
    1555     5555     5556 1
    1556    11306    11307 1
    1557     7553     7554 1
    1558    10922    10923 1
    1559    11144    11145 1
    1560     5717     5718 1
    1561      147      144 1
    1562     7427     7428 1
    1563     1950     1951 1
    1564     2222     2223 1
    1565     9506     9507 1
    1566    11489    11490 1
    1567    10586    10588 1
    1568    12341    12343 1
    1569    10652    10653 1
    1570     6428     6430 1
    1571     8345     8347 1
    1572    10694    10696 1
    1573     9734     9735 1
    1574     8615     8617 1
    1575     7655     7656 1
    1576     3077     3078 1
    1577     7592     7593 1
    1578     7874     7876 1
    1579     1869     1870 1
    1580    10829    10830 1
    1581      277      279 1
    1582     1284     1285 1
    1583     1360     1361 1
    1584    10835    10836 1
    1585     1512     1513 1
    1586     2001     2002 1
    1587     1998     1999 1
    1588     1165     1166 1
    1589     2947     2949 1
    1590     2774     2770 1
    1591     1901     1902 1
    1592     2274     2275 1
    1593     1629     1630 1
    1594     2546     2547 1
    1595     3529     3532 1
    1596     2057     2058 1
    1597     1632     1633 1
    1598     3611     3610 1
    1599     4744     4728 1
    1600      307      310 1
    1601    10445    10446 1
    1602     3325     3321 1
    1603     5489     5490 1
    1604    10034    10036 1
    1605     3632     3631 1
    1606     1638     1639 1
    1607     2295     2296 1
    1608     5762     5763 1
    1609    11324    11325 1
    1610     5573     5574 1
    1611     8180     8182 1
    1612     7598     7599 1
    1613     7283     7285 1
    1614     5306     5307 1
    1615     7073     7075 1
    1616    10826    10828 1
    1617    10907    10909 1
    1618    12500    12502 1
    1619    10664    10666 1
    1620    12905    12907 1
    1621     3870     3867 1
    1622    11585    11586 1
    1623     8981     8983 1
    1624    12815    12817 1
    1625     7226     7228 1
    1626    10520    10522 1
    1627     6686     6688 1
    1628    12275    12277 1
    1629     6443     6445 1
    1630    12518    12520 1
    1631     5834     5835 1
    1632     6902     6904 1
    1633     4347     4348 1
    1634     5148     5149 1
    1635     4954     4955 1
    1636     4896     4897 1
    1637     3558     3557 1
    1638     1190     1191 1
    1639     4948     4949 1
    1640       80       81 1
    1641     2885     2886 1
    1642     2961     2962 1
    1643     5483     5484 1
    1644     5387     5388 1
    1645     1001     1002 1
    1646     4183     4184 1
    1647     3076     3077 1
    1648     5100     5101 1
    1649      761      762 1
    1650     1994     1995 1
    1651     2133     2134 1
    1652     4862     4863 1
    1653     1305     1301 1
    1654     4369     4351 1
    1655     1315     1316 1
    1656     5125     5126 1
    1657       45       46 1
    1658     3881     3884 1
    1659     1900     1899 1
    1660     4712     4713 1
    1661     5198     5199 1
    1662     5300     5301 1
    1663      868      869 1
    1664     2650     2651 1
    1665     8756     8757 1
    1666     5507     5509 1
    1667     6809     6811 1
    1668    12641    12643 1
    1669    12803    12805 1
    1670     6971     6973 1
    1671     8996     8998 1
    1672    12560    12562 1
    1673    10724    10726 1
    1674     7241     7243 1
    1675     8807     8809 1
    1676     6917     6919 1
    1677      834      837 1
    1678      168      167 1
    1679     3912     3911 1
    1680    10913    10915 1
    1681     2064     2065 1
    1682     7361     7362 1
    1683     5606     5607 1
    1684     7739     7740 1
    1685    11735    11736 1
    1686     5984     5985 1
    1687     9278     9279 1
    1688     8063     8064 1
    1689     9818     9819 1
    1690     7901     7902 1
    1691     7577     7578 1
    1692     5564     5565 1
    1693     7007     7009 1
    1694     2664     2665 1
    1695     1806     1807 1
    1696     2963     2959 1
    1697     1122     1123 1
    1698     4634     4635 1
    1699     2698     2699 1
    1700     5390     5391 1
    1701      743      747 1
    1702     5624     5625 1
    1703     5975     5976 1
    1704     8012     8013 1
    1705     9551     9552 1
    1706    11468    11469 1
    1707    10091    10092 1
    1708     8174     8175 1
    1709     6989     6991 1
    1710     7634     7635 1
    1711     7472     7473 1
    1712     9713     9714 1
    1713     9929     9930 1
    1714     4355     4356 1
    1715     4714     4715 1
    1716      439      438 1
    1717     4413     4414 1
    1718     4527     4528 1
    1719     5172     5173 1
    1720     1460     1461 1
    1721      711      712 1
    1722     5244     5245 1
    1723     3826     3829 1
    1724     3469     3465 1
    1725     1349     1350 1
    1726     3459     3460 1
    1727     4385     4386 1
    1728    11990    11992 1
    1729    11828    11830 1
    1730     9371     9373 1
    1731     9533     9535 1
    1732    10073    10075 1
    1733    11450    11452 1
    1734     7616     7618 1
    1735     2944     2945 1
    1736     3020     3021 1
    1737     4268     4269 1
    1738    12491    12492 1
    1739      553      554 1
    1740      963      964 1
    1741    10121    10122 1
    1742     5128     5127 1
    1743     5191     5192 1
    1744       53       55 1
    1745      526      527 1
    1746      450      451 1
    1747     3781     3783 1
    1748    10469    10471 1
    1749     5129     5130 1
    1750     1781     1763 1
    1751    11366    11368 1
    1752     4055     4051 1
    1753     4032     4033 1
    1754     3027     3028 1
    1755     7403     7404 1
    1756     9401     9402 1
    1757     7160     7161 1
    1758    11237    11238 1
    1759    10994    10995 1
    1760     9158     9159 1
    1761     7322     7323 1
    1762      465      466 1
    1763     1685     1686 1
    1764      889      892 1
    1765     6563     6564 1
    1766    11033    11035 1
    1767    11723    11724 1
    1768     4904     4905 1
    1769     6575     6576 1
    1770     8408     8409 1
    1771     5084     5083 1
    1772     8099     8101 1
    1773      611      612 1
    1774     4545     4546 1
    1775      618      619 1
    1776      542      543 1
    1777     2229     2230 1
    1778    12284    12286 1
    1779    10529    10531 1
    1780     6371     6373 1
    1781     6695     6697 1
    1782     8126     8128 1
    1783     7964     7966 1
    1784    10043    10045 1
    1785    12152    12153 1
    1786    11639    11640 1
    1787     9047     9048 1
    1788     6212     6213 1
    1789     3382     3381 1
    1790     6401     6402 1
    1791     8885     8886 1
    1792     7130     7131 1
    1793    11801    11802 1
    1794     8156     8157 1
    1795     8900     8902 1
    1796     3892     3891 1
    1797     5105     5106 1
    1798     4144     4145 1
    1799     3615     3616 1
    1800     1441     1443 1
    1801     1736     1737 1
    1802     1785     1786 1
    1803    11159    11160 1
    1804     5105     5108 1
    1805     1063     1059 1
    1806     4493     4494 1
    1807    10811    10812 1
    1808    10892    10893 1
    1809     7139     7140 1
    1810     9056     9057 1
    1811     8894     8895 1
    1812     8975     8976 1
    1813     7058     7059 1
    1814     2419     2420 1
    1815     3243     3244 1
    1816     6059     6061 1
    1817    10760    10761 1
    1818     3503     3499 1
    1819     4019     4021 1
    1820     7136     7138 1
    1821     8891     8893 1
    1822    12131    12133 1
    1823    10376    10378 1
    1824    10808    10810 1
    1825    11807    11809 1
    1826     8297     8299 1
    1827    11645    11647 1
    1828     7460     7462 1
    1829     6218     6220 1
    1830      100       99 1
    1831     1746     1747 1
    1832     4708     4692 1
    1833     4287     4288 1
    1834      238      237 1
    1835     4715     4716 1
    1836      871      872 1
    1837     4342     4343 1
    1838    12335    12336 1
    1839     3112     3111 1
    1840     3036     3035 1
    1841    10697    10699 1
    1842     3349     3350 1
    1843     9698     9700 1
    1844     6863     6865 1
    1845     8618     8620 1
    1846     5864     5866 1
    1847     3121     3122 1
    1848     2301     2302 1
    1849     5702     5704 1
    1850    11615    11617 1
    1851     3873     3875 1
    1852     4349     4352 1
    1853      767      770 1
    1854     5771     5773 1
    1855      388      389 1
    1856     1295     1299 1
    1857     8711     8712 1
    1858     2415     2416 1
    1859     6038     6039 1
    1860     6794     6795 1
    1861     9872     9873 1
    1862     4125     4126 1
    1863     1553     1554 1
    1864    12545    12546 1
    1865     2042     2043 1
    1866     7793     7794 1
    1867     3275     3277 1
    1868     4892     4893 1
    1869     4736     4737 1
    1870     4742     4743 1
    1871     3657     3658 1
    1872     8774     8775 1
    1873     7019     7020 1
    1874     6020     6021 1
    1875    11771    11772 1
    1876     7775     7776 1
    1877     7937     7938 1
    1878    11015    11016 1
    1879    10853    10854 1
    1880     7235     7237 1
    1881     3056     3057 1
    1882     2398     2399 1
    1883      635      634 1
    1884     6416     6418 1
    1885     5114     5115 1
    1886     4258     4259 1
    1887     4958     4959 1
    1888    11303    11304 1
    1889      442      443 1
    1890     3151     3150 1
    1891     8366     8367 1
    1892    12389    12390 1
    1893     9716     9717 1
    1894    11471    11472 1
    1895     7205     7206 1
    1896     9554     9555 1
    1897    10634    10635 1
    1898     7637     7638 1
    1899    10472    10473 1
    1900     7475     7476 1
    1901     4984     4983 1
    1902     6890     6892 1
    1903     5918     5919 1
    1904     8318     8320 1
    1905     9398     9400 1
    1906     3864     3865 1
    1907     3863     3862 1
    1908     4604     4605 1
    1909     4493     4495 1
    1910     2731     2733 1
    1911     1623     1624 1
    1912     3681     3682 1
    1913       99      102 1
    1914     1572     1573 1
    1915     3574     3573 1
    1916     2000     2001 1
    1917     5600     5601 1
    1918     2869     2870 1
    1919      157      156 1
    1920     3534     3533 1
    1921     2774     2776 1
    1922     9269     9271 1
    1923     6623     6624 1
    1924    10031    10032 1
    1925     5164     5165 1
    1926     3387     3386 1
    1927     5248     5232 1
    1928    11060    11061 1
    1929     9188     9190 1
    1930    12308    12310 1
    1931     2279     2280 1
    1932     1634     1635 1
    1933     7103     7104 1
    1934    11180    11181 1
    1935    11261    11262 1
    1936     7346     7347 1
    1937     7265     7266 1
    1938     9101     9102 1
    1939     7508     7509 1
    1940    11099    11100 1
    1941     9182     9183 1
    1942     9344     9345 1
    1943     8912     8914 1
    1944     9296     9297 1
    1945    11888    11889 1
    1946     8054     8055 1
    1947    12050    12051 1
    1948    12212    12213 1
    1949    11213    11214 1
    1950     9809     9810 1
    1951     7379     7380 1
    1952     9971     9972 1
    1953     8972     8973 1
    1954     1692     1693 1
    1955       21       20 1
    1956     9332     9334 1
    1957       58       60 1
    1958     2213     2214 1
    1959     4894     4893 1
    1960     1568     1569 1
    1961    11330    11332 1
    1962      659      660 1
    1963      583      584 1
    1964     4922     4923 1
    1965     2750     2751 1
    1966     4011     4012 1
    1967     4917     4916 1
    1968     5234     5235 1
    1969    12089    12091 1
    1970     3145     3147 1
    1971     1723     1724 1
    1972     7298     7300 1
    1973     2264     2248 1
    1974     3090     3093 1
    1975      558      561 1
    1976     4105     4104 1
    1977     3954     3953 1
    1978    11732    11733 1
    1979      229      230 1
    1980    11603    11605 1
    1981     4672     4656 1
    1982     2492     2493 1
    1983      178      179 1
    1984    10109    10111 1
    1985    12716    12718 1
    1986     3522     3523 1
    1987    12407    12408 1
    1988    10424    10426 1
    1989     8438     8440 1
    1990    12704    12705 1
    1991    11165    11166 1
    1992      741      742 1
    1993      205      204 1
    1994     2062     2063 1
    1995     1622     1623 1
    1996     4745     4748 1
    1997      665      666 1
    1998     4723     4724 1
    1999     6758     6760 1
    2000      662      659 1
    2001     5468     5469 1
    2002     5036     5037 1
    2003      726      727 1
    2004     4177     4178 1
    2005     1358     1359 1
    2006     4235     4236 1
    2007     8108     8109 1
    2008     1289     1290 1
    2009     5348     5349 1
    2010     4889     4892 1
    2011     3907     3906 1
    2012     1459     1440 1
    2013     6821     6822 1
    2014    12215    12217 1
    2015    10865    10867 1
    2016     5504     5506 1
    2017     7031     7033 1
    2018     5432     5434 1
    2019    11027    11029 1
    2020    12377    12379 1
    2021    10136    10138 1
    2022     8786     8788 1
    2023    12653    12654 1
    2024     3848     3849 1
    2025     1845     1844 1
    2026     3247     3248 1
    2027     2010     2009 1
    2028     8303     8304 1
    2029     3030     3031 1
    2030    10505    10506 1
    2031     5272     5270 1
    2032      524      521 1
    2033    12812    12813 1
    2034     1273     1276 1
    2035    10940    10941 1
    2036     8942     8943 1
    2037     7187     7188 1
    2038    12776    12777 1
    2039     3029     3030 1
    2040      222      221 1
    2041     3927     3930 1
    2042    11993    11994 1
    2043     3612     3611 1
    2044     4019     4020 1
    2045     1861     1862 1
    2046      651      654 1
    2047     1586     1587 1
    2048    12095    12097 1
    2049      257      256 1
    2050     4750     4751 1
    2051      823      824 1
    2052     1373     1374 1
    2053     5022     5023 1
    2054    12674    12676 1
    2055    10406    10408 1
    2056      850      849 1
    2057     4628     4627 1
    2058    10007    10009 1
    2059     9845     9847 1
    2060    11924    11926 1
    2061     8009     8011 1
    2062     8090     8092 1
    2063       39       38 1
    2064     8171     8173 1
    2065     6173     6175 1
    2066    10088    10090 1
    2067     9926     9928 1
    2068     1767     1766 1
    2069       79       60 1
    2070     8837     8838 1
    2071     4280     4281 1
    2072     1912     1913 1
    2073     4673     4676 1
    2074     3376     3375 1
    2075      912      913 1
    2076     4685     4686 1
    2077     4254     4255 1
    2078     5162     5163 1
    2079     5113     5114 1
    2080     4156     4157 1
    2081     1448     1449 1
    2082     1319     1321 1
    2083     3641     3642 1
    2084     4657     4639 1
    2085     2287     2288 1
    2086    12737    12738 1
    2087     4653     4654 1
    2088     1030     1031 1
    2089     4702     4703 1
    2090     2723     2727 1
    2091     1111     1115 1
    2092      889      891 1
    2093     6569     6571 1
    2094     4592     4593 1
    2095     5020     5021 1
    2096     7946     7948 1
    2097     7784     7786 1
    2098     4313     4316 1
    2099     8486     8488 1
    2100     6029     6031 1
    2101    10241    10243 1
    2102    10403    10405 1
    2103     1558     1559 1
    2104     3408     3407 1
    2105    11732    11734 1
    2106     6170     6172 1
    2107    10004    10006 1
    2108     9653     9655 1
    2109    11921    11923 1
    2110     5819     5821 1
    2111    10166    10168 1
    2112     5648     5650 1
    2113    12101    12103 1
    2114    11939    11941 1
    2115     7727     7729 1
    2116    11561    11563 1
    2117     8105     8107 1
    2118     3106     3107 1
    2119    10022    10024 1
    2120     9860     9862 1
    2121     6188     6190 1
    2122     3308     3309 1
    2123    10472    10474 1
    2124     8366     8368 1
    2125    12389    12391 1
    2126     9716     9718 1
    2127     9554     9556 1
    2128    10634    10636 1
    2129    11471    11473 1
    2130     7637     7639 1
    2131     7475     7477 1
    2132    11039    11041 1
    2133     1449     1450 1
    2134     1786     1787 1
    2135     2376     2377 1
    2136     1151     1155 1
    2137     2412     2413 1
    2138     2256     2257 1
    2139      475      477 1
    2140      139      141 1
    2141     3613     3614 1
    2142     9503     9505 1
    2143     3115     3117 1
    2144     4065     4068 1
    2145     3537     3538 1
    2146     2506     2507 1
    2147     1647     1648 1
    2148     1868     1852 1
    2149      342      341 1
    2150     1848     1849 1
    2151     2707     2708 1
    2152      358      357 1
    2153       97       93 1
    2154     3834     3832 1
    2155    12050    12052 1
    2156     7958     7959 1
    2157     6365     6366 1
    2158     8120     8121 1
    2159    11954    11955 1
    2160    10037    10038 1
    2161    10199    10200 1
    2162     1404     1405 1
    2163     3087     3085 1
    2164     4364     4365 1
    2165     1001     1000 1
    2166      313      314 1
    2167     5174     5175 1
    2168     3039     3042 1
    2169     2853     2854 1
    2170    10067    10068 1
    2171    11822    11823 1
    2172     9365     9366 1
    2173     9527     9528 1
    2174    11984    11985 1
    2175    11444    11445 1
    2176     7610     7611 1
    2177     1509     1510 1
    2178     7832     7834 1
    2179      808      809 1
    2180     2668     2669 1
    2181     9749     9751 1
    2182     7994     7996 1
    2183     9911     9913 1
    2184     5753     5755 1
    2185     5915     5917 1
    2186    11288    11290 1
    2187     7454     7456 1
    2188    12830    12832 1
    2189    11639    11641 1
    2190     3286     3287 1
    2191     4991     4992 1
    2192     4346     4347 1
    2193     4508     4509 1
    2194     5147     5148 1
    2195     4262     4263 1
    2196     2474     2475 1
    2197     4871     4870 1
    2198      616      617 1
    2199     1172     1173 1
    2200     7253     7254 1
    2201    10865    10866 1
    2202     3183     3184 1
    2203      840      842 1
    2204     4130     4131 1
    2205     2717     2718 1
    2206      282      285 1
    2207     5630     5631 1
    2208      559      561 1
    2209     8570     8572 1
    2210     9143     9145 1
    2211     7037     7039 1
    2212    11318    11319 1
    2213     2431     2432 1
    2214    11849    11851 1
    2215    11156    11157 1
    2216    11399    11400 1
    2217     9320     9321 1
    2218     5567     5568 1
    2219     7565     7566 1
    2220     5729     5730 1
    2221     3946     3943 1
    2222     3629     3630 1
    2223     5393     5394 1
    2224     8702     8703 1
    2225     9077     9078 1
    2226     2953     2954 1
    2227    11267    11269 1
    2228     2457     2458 1
    2229    11405    11406 1
    2230     1137     1118 1
    2231     5402     5403 1
    2232     2548     2549 1
    2233     4203     4204 1
    2234     5062     5063 1
    2235     3245     3246 1
    2236     2713     2714 1
    2237    11324    11326 1
    2238     5004     5005 1
    2239     7598     7600 1
    2240     5573     5575 1
    2241    12692    12693 1
    2242     9317     9318 1
    2243    10613    10614 1
    2244     9020     9021 1
    2245    10775    10776 1
    2246     7022     7023 1
    2247     8777     8778 1
    2248    11396    11397 1
    2249     7562     7563 1
    2250    11315    11316 1
    2251     3575     3577 1
    2252     2300     2284 1
    2253     8405     8406 1
    2254    10322    10323 1
    2255     6488     6489 1
    2256     6110     6111 1
    2257     7865     7866 1
    2258    11861    11862 1
    2259     2404     2405 1
    2260     5948     5949 1
    2261     8567     8568 1
    2262    12611    12612 1
    2263    11600    11602 1
    2264      973      977 1
    2265      398      397 1
    2266     3361     3363 1
    2267     3999     4000 1
    2268     3797     3798 1
    2269     5798     5800 1
    2270     9632     9634 1
    2271    12413    12415 1
    2272    12251    12253 1
    2273    10334    10336 1
    2274    10172    10174 1
    2275    11711    11713 1
    2276     3467     3469 1
    2277     8255     8257 1
    2278     7043     7045 1
    2279     6017     6018 1
    2280     2826     2827 1
    2281    11678    11679 1
    2282    10391    10392 1
    2283      762      763 1
    2284     1034     1035 1
    2285    12266    12267 1
    2286     4651     4652 1
    2287      686      687 1
    2288     4437     4438 1
    2289    11078    11080 1
    2290      532      533 1
    2291     2279     2278 1
    2292     1219     1220 1
    2293     4776     4777 1
    2294     4721     4722 1
    2295     1143     1144 1
    2296     4559     4560 1
    2297     4993     4994 1
    2298     5204     5205 1
    2299    10448    10450 1
    2300     7169     7171 1
    2301    11246    11248 1
    2302     7331     7333 1
    2303     6791     6793 1
    2304     9410     9412 1
    2305    12461    12463 1
    2306     6872     6874 1
    2307     8870     8872 1
    2308    11021    11023 1
    2309     8780     8782 1
    2310     7025     7027 1
    2311     7943     7945 1
    2312     7781     7783 1
    2313    11777    11779 1
    2314     6026     6028 1
    2315    10859    10861 1
    2316    10508    10509 1
    2317     1427     1430 1
    2318     3948     3947 1
    2319     3648     3650 1
    2320     4313     4315 1
    2321     6320     6321 1
    2322     1653     1656 1
    2323     8030     8031 1
    2324    11486    11487 1
    2325     9548     9549 1
    2326    11465    11466 1
    2327    12383    12384 1
    2328    10628    10629 1
    2329    10466    10467 1
    2330     7631     7632 1
    2331     7469     7470 1
    2332     9710     9711 1
    2333     6632     6633 1
    2334     8426     8428 1
    2335     4253     4254 1
    2336     4898     4899 1
    2337     2625     2628 1
    2338     6533     6534 1
    2339    10367    10368 1
    2340    12122    12123 1
    2341     7451     7452 1
    2342     3835     3837 1
    2343     8288     8289 1
    2344    11285    11286 1
    2345     7289     7290 1
    2346       37       36 1
    2347     2964     2965 1
    2348     3266     3267 1
    2349     6395     6396 1
    2350     5294     5295 1
    2351     4074     4075 1
    2352     6770     6771 1
    2353     8687     8688 1
    2354    11684    11685 1
    2355     3267     3268 1
    2356    11522    11523 1
    2357     8849     8850 1
    2358     2714     2715 1
    2359     9767     9768 1
    2360     9605     9606 1
    2361     6608     6609 1
    2362      873      874 1
    2363     2720     2717 1
    2364     1399     1400 1
    2365     4344     4345 1
    2366     1215     1214 1
    2367     5165     5166 1
    2368      113      112 1
    2369      737      738 1
    2370      994      995 1
    2371      918      919 1
    2372    12590    12592 1
    2373     4370     4371 1
    2374     4564     4548 1
    2375     9236     9237 1
    2376     2823     2826 1
    2377      166      165 1
    2378     6278     6279 1
    2379    12434    12435 1
    2380    12191    12192 1
    2381    10274    10275 1
    2382    12272    12273 1
    2383     4574     4575 1
    2384     5219     5220 1
    2385     1050     1051 1
    2386     4794     4795 1
    2387     3153     3154 1
    2388     1303     1304 1
    2389     7808     7810 1
    2390     2739     2740 1
    2391     3333     3332 1
    2392     2965     2966 1
    2393    12080    12082 1
    2394     6329     6331 1
    2395     6086     6088 1
    2396     6410     6412 1
    2397     8327     8329 1
    2398     8246     8248 1
    2399    12161    12163 1
    2400     6248     6250 1
    2401     1377     1378 1
    2402     5188     5189 1
    2403    10169    10170 1
    2404      829      830 1
    2405     3555     3551 1
    2406      678      679 1
    2407     2729     2730 1
    2408     4961     4962 1
    2409     9269     9270 1
    2410     1505     1506 1
    2411     3136     3139 1
    2412     6818     6819 1
    2413     6557     6559 1
    2414     5612     5614 1
    2415     9254     9256 1
    2416     3189     3193 1
    2417     1181     1182 1
    2418     1257     1258 1
    2419     8453     8455 1
    2420     3057     3058 1
    2421     3471     3472 1
    2422    12197    12199 1
    2423     4157     4158 1
    2424     1177     1178 1
    2425      548      549 1
    2426     4762     4763 1
    2427     9341     9343 1
    2428     7100     7102 1
    2429    11177    11179 1
    2430     7262     7264 1
    2431    11258    11260 1
    2432     7343     7345 1
    2433     9098     9100 1
    2434     8939     8940 1
    2435    10937    10938 1
    2436    12773    12774 1
    2437     7184     7185 1
    2438     1588     1587 1
    2439    12896    12898 1
    2440     6188     6189 1
    2441     9842     9843 1
    2442     2671     2675 1
    2443      307      309 1
    2444    10619    10620 1
    2445    12698    12699 1
    2446    11150    11151 1
    2447       74       73 1
    2448     2268     2265 1
    2449    12656    12657 1
    2450      231      232 1
    2451     2875     2876 1
    2452    12566    12567 1
    2453     9002     9003 1
    2454     6977     6978 1
    2455     9245     9246 1
    2456    12809    12810 1
    2457     8732     8733 1
    2458    12647    12648 1
    2459     6815     6816 1
    2460    11084    11086 1
    2461     7004     7005 1
    2462     4488     4489 1
    2463      489      490 1
    2464    11282    11283 1
    2465     5747     5748 1
    2466     8519     8520 1
    2467     7586     7587 1
    2468    10943    10945 1
    2469     8945     8947 1
    2470    12779    12781 1
    2471     7190     7192 1
    2472      801      802 1
    2473     4879     4880 1
    2474    10205    10206 1
    2475       43       42 1
    2476      404      403 1
    2477     5152     5153 1
    2478      587      588 1
    2479     2924     2925 1
    2480     3129     3130 1
    2481     3205     3206 1
    2482      663      664 1
    2483     2644     2645 1
    2484     4010     4013 1
    2485    12875    12876 1
    2486    10553    10554 1
    2487    10802    10803 1
    2488    10067    10069 1
    2489    11822    11824 1
    2490     9527     9529 1
    2491     9365     9367 1
    2492    11444    11446 1
    2493    11984    11986 1
    2494     7610     7612 1
    2495     7895     7896 1
    2496      362      363 1
    2497     2201     2202 1
    2498     1556     1557 1
    2499     4128     4129 1
    2500     3163     3161 1
    2501        2        1 1
    2502     1060     1059 1
    2503     2144     2145 1
    2504     1872     1873 1
    2505     2649     2650 1
    2506     4996     4980 1
    2507     4585     4567 1
    2508     1842     1843 1
    2509    10502    10504 1
    2510     9053     9054 1
    2511    11063    11064 1
    2512     8984     8985 1
    2513     7229     7230 1
    2514    12818    12819 1
    2515     6905     6906 1
    2516     9065     9066 1
    2517     6986     6987 1
    2518     9227     9228 1
    2519      315      314 1
    2520     2349     2350 1
    2521     1704     1705 1
    2522     8276     8277 1
    2523    12329    12331 1
    2524     3773     3772 1
    2525      295      294 1
    2526     7142     7143 1
    2527     6224     6225 1
    2528        7        8 1
    2529    10814    10815 1
    2530     5381     5382 1
    2531     9059     9060 1
    2532    11813    11814 1
    2533     8897     8898 1
    2534    11651    11652 1
    2535     3283     3284 1
    2536      606      610 1
    2537     3965     3968 1
    2538     8078     8079 1
    2539     1208     1210 1
    2540     5130     5131 1
    2541     2413     2414 1
    2542     2616     2617 1
    2543      967      971 1
    2544     2423     2424 1
    2545     3420     3419 1
    2546     3191     3194 1
    2547     1684     1685 1
    2548     2060     2061 1
    2549     1840     1841 1
    2550     2488     2489 1
    2551     2332     2333 1
    2552      152      150 1
    2553     2485     2486 1
    2554     2112     2113 1
    2555     1347     1348 1
    2556     1575     1576 1
    2557      813      814 1
    2558     3401     3402 1
    2559    10046    10047 1
    2560     7715     7716 1
    2561    11102    11104 1
    2562    12401    12403 1
    2563      353      355 1
    2564     4600     4584 1
    2565    11162    11163 1
    2566     4628     4629 1
    2567     8747     8749 1
    2568     8342     8344 1
    2569     6425     6427 1
    2570    10583    10585 1
    2571    10421    10423 1
    2572     8423     8425 1
    2573     6506     6508 1
    2574      705      707 1
    2575     6587     6589 1
    2576    12338    12340 1
    2577     3799     3800 1
    2578     5927     5928 1
    2579     5285     5286 1
    2580     9863     9864 1
    2581     8189     8190 1
    2582     9944     9945 1
    2583     8027     8028 1
    2584    11942    11943 1
    2585     1130     1131 1
    2586    10106    10107 1
    2587    12104    12105 1
    2588    11126    11127 1
    2589      110      107 1
    2590     2401     2402 1
    2591     4940     4939 1
    2592      190      189 1
    2593     4906     4905 1
    2594     4045     4046 1
    2595     2850     2851 1
    2596    10226    10228 1
    2597    10307    10309 1
    2598     8552     8554 1
    2599     8390     8392 1
    2600    12227    12229 1
    2601     6923     6924 1
    2602     6473     6475 1
    2603     6554     6556 1
    2604     5963     5965 1
    2605    10388    10390 1
    2606     1696     1697 1
    2607     1916     1917 1
    2608     5711     5713 1
    2609     5990     5991 1
    2610     3755     3756 1
    2611     5131     5132 1
    2612     4486     4487 1
    2613     4269     4270 1
    2614     1234     1235 1
    2615     4857     4858 1
    2616     9299     9301 1
    2617    10571    10573 1
    2618      675      678 1
    2619    12488    12490 1
    2620     5657     5659 1
    2621     8654     8656 1
    2622    11570    11572 1
    2623     7736     7738 1
    2624     6737     6739 1
    2625     6839     6840 1
    2626     7898     7900 1
    2627     2755     2756 1
    2628     9122     9123 1
    2629     3919     3920 1
    2630     2157     2160 1
    2631     5720     5722 1
    2632     4063     4067 1
    2633     2061     2062 1
    2634     2119     2120 1
    2635     1833     1836 1
    2636      144      143 1
    2637     7112     7113 1
    2638     3663     3664 1
    2639     3982     3981 1
    2640     4877     4878 1
    2641     8726     8728 1
    2642     1249     1252 1
    2643        3        1 1
    2644     9740     9742 1
    2645      175      174 1
    2646     5396     5398 1
    2647     3703     3704 1
    2648     2887     2868 1
    2649     2882     2883 1
    2650     8447     8449 1
    2651     4986     4987 1
    2652       27       26 1
    2653     7550     7551 1
    2654     5516     5517 1
    2655     7670     7672 1
    2656      500      501 1
    2657      576      577 1
    2658     5591     5593 1
    2659      888      886 1
    2660    11666    11668 1
    2661     5276     5277 1
    2662     1612     1613 1
    2663     1603     1604 1
    2664    11594    11596 1
    2665     5843     5845 1
    2666     7679     7681 1
    2667    10649    10651 1
    2668    12404    12406 1
    2669    10568    10570 1
    2670    11675    11677 1
    2671     6734     6736 1
    2672     5600     5602 1
    2673    10487    10489 1
    2674     1155     1156 1
    2675     1079     1080 1
    2676     1667     1666 1
    2677     6746     6748 1
    2678    11042    11043 1
    2679     2899     2900 1
    2680     3165     3166 1
    2681    12854    12856 1
    2682     2721     2717 1
    2683     2371     2372 1
    2684     4834     4835 1
    2685      125      106 1
    2686     4878     4879 1
    2687     7079     7080 1
    2688    12506    12507 1
    2689    10670    10671 1
    2690    10832    10833 1
    2691    12668    12669 1
    2692    11741    11743 1
    2693    12911    12912 1
    2694     8915     8916 1
    2695     6836     6837 1
    2696     8834     8835 1
    2697      786      783 1
    2698     2769     2772 1
    2699     9425     9427 1
    2700     3913     3917 1
    2701       35       34 1
    2702     1268     1269 1
    2703    10838    10840 1
    2704     2915     2918 1
    2705      750      748 1
    2706     5139     5138 1
    2707    11198    11200 1
    2708    10118    10120 1
    2709     4328     4329 1
    2710     4973     4974 1
    2711      408      407 1
    2712     1098     1099 1
    2713     9899     9901 1
    2714     7820     7822 1
    2715    11276    11278 1
    2716     5903     5905 1
    2717     4441     4423 1
    2718     5741     5743 1
    2719     7982     7984 1
    2720    10835    10837 1
    2721     6524     6526 1
    2722     9737     9739 1
    2723     1457     1458 1
    2724      852      853 1
    2725     1797     1798 1
    2726     8546     8547 1
    2727      829      832 1
    2728     5206     5205 1
    2729     4995     4994 1
    2730     4734     4735 1
    2731     5172     5171 1
    2732     4472     4471 1
    2733     1260     1261 1
    2734     7568     7569 1
    2735     4349     4350 1
    2736      767      768 1
    2737      468      472 1
    2738     7382     7383 1
    2739     9848     9850 1
    2740    11549    11551 1
    2741     9299     9300 1
    2742    11216    11217 1
    2743    11927    11929 1
    2744     7463     7464 1
    2745    11297    11298 1
    2746     5627     5628 1
    2747     5636     5638 1
    2748     8093     8095 1
    2749     4062     4064 1
    2750     7541     7543 1
    2751     9458     9460 1
    2752    10295    10297 1
    2753     7703     7705 1
    2754     6461     6463 1
    2755    11375    11377 1
    2756    12536    12538 1
    2757     8540     8542 1
    2758     1085     1086 1
    2759    10457    10459 1
    2760      859      860 1
    2761      935      936 1
    2762     1601     1602 1
    2763     2426     2427 1
    2764     2351     2352 1
    2765     2623     2624 1
    2766     8744     8745 1
    2767     9329     9331 1
    2768     1027     1030 1
    2769     7034     7036 1
    2770     7574     7576 1
    2771      951      954 1
    2772     1432     1435 1
    2773     5435     5437 1
    2774    12704    12706 1
    2775     8789     8791 1
    2776     9032     9034 1
    2777     3103     3104 1
    2778     4026     4027 1
    2779    10619    10621 1
    2780     2837     2838 1
    2781    10991    10992 1
    2782       83       84 1
    2783     4794     4793 1
    2784     3935     3936 1
    2785     3493     3492 1
    2786     4132     4116 1
    2787      761      760 1
    2788     4136     4137 1
    2789     3260     3261 1
    2790     2780     2781 1
    2791     3827     3831 1
    2792    10208    10209 1
    2793     4621     4603 1
    2794    10403    10404 1
    2795     4133     4136 1
    2796     7313     7314 1
    2797     6206     6207 1
    2798    11795    11796 1
    2799     9041     9042 1
    2800     7151     7152 1
    2801     6233     6234 1
    2802    11633    11634 1
    2803     6071     6072 1
    2804    12146    12147 1
    2805      360      359 1
    2806     9803     9805 1
    2807    12044    12046 1
    2808     4415     4416 1
    2809     2235     2236 1
    2810      775      776 1
    2811      781      782 1
    2812    11882    11884 1
    2813     5438     5440 1
    2814     8966     8968 1
    2815    11234    11236 1
    2816      409      408 1
    2817     3589     3590 1
    2818     4363     4364 1
    2819      196      198 1
    2820     5017     4999 1
    2821     3227     3223 1
    2822     3044     3047 1
    2823       63       61 1
    2824     2389     2390 1
    2825     2063     2064 1
    2826     2329     2330 1
    2827     3433     3432 1
    2828     6701     6702 1
    2829     2596     2597 1
    2830    12020    12021 1
    2831    10265    10266 1
    2832    12182    12183 1
    2833    12290    12291 1
    2834    10535    10536 1
    2835     2677     2679 1
    2836     8456     8457 1
    2837     6269     6270 1
    2838     5297     5298 1
    2839    10193    10195 1
    2840     9869     9870 1
    2841      104      106 1
    2842      914      915 1
    2843      882      886 1
    2844     3402     3403 1
    2845     2791     2792 1
    2846     2981     2982 1
    2847      441      440 1
    2848     1238     1237 1
    2849      771      772 1
    2850    11405    11407 1
    2851    12770    12772 1
    2852     8936     8938 1
    2853    10934    10936 1
    2854     7181     7183 1
    2855     5795     5797 1
    2856    10709    10711 1
    2857     8792     8794 1
    2858     6875     6877 1
    2859    12626    12628 1
    2860    11708    11710 1
    2861    12788    12790 1
    2862     9629     9631 1
    2863     1478     1479 1
    2864     7622     7623 1
    2865    12293    12294 1
    2866     6704     6705 1
    2867     9377     9378 1
    2868    10538    10539 1
    2869     8459     8460 1
    2870    11456    11457 1
    2871     9539     9540 1
    2872     6590     6591 1
    2873     2216     2217 1
    2874     2601     2602 1
    2875      473      474 1
    2876     2665     2666 1
    2877     3803     3804 1
    2878     2671     2674 1
    2879     3182     3185 1
    2880     7772     7773 1
    2881     2829     2830 1
    2882      484      485 1
    2883     1233     1234 1
    2884     4700     4701 1
    2885     4586     4587 1
    2886     4856     4857 1
    2887     3805     3808 1
    2888      406      407 1
    2889     8270     8271 1
    2890     7301     7302 1
    2891      137      136 1
    2892      482      483 1
    2893      488      489 1
    2894     1149     1150 1
    2895     1225     1226 1
    2896     4507     4508 1
    2897     1694     1695 1
    2898    11183    11185 1
    2899     9185     9187 1
    2900     1157     1159 1
    2901     7106     7108 1
    2902    11264    11266 1
    2903     7349     7351 1
    2904     9104     9106 1
    2905     9347     9349 1
    2906      702      704 1
    2907     7268     7270 1
    2908     2369     2370 1
    2909     2091     2092 1
    2910     6638     6639 1
    2911     1401     1402 1
    2912    11006    11007 1
    2913     1792     1793 1
    2914     2379     2380 1
    2915      297      296 1
    2916      211      210 1
    2917     2547     2548 1
    2918     1902     1903 1
    2919      365      366 1
    2920     1303     1306 1
    2921     3988     3987 1
    2922     1461     1462 1
    2923      712      713 1
    2924     5028     5029 1
    2925     1018     1021 1
    2926      133      132 1
    2927    11987    11988 1
    2928      312      311 1
    2929     7904     7906 1
    2930     2049     2052 1
    2931     3735     3737 1
    2932     3439     3437 1
    2933      104      100 1
    2934    12494    12495 1
    2935     7067     7068 1
    2936    10901    10902 1
    2937    12899    12900 1
    2938    10820    10821 1
    2939     8903     8904 1
    2940    10658    10659 1
    2941     2708     2709 1
    2942      835      836 1
    2943     6824     6825 1
    2944     9230     9232 1
    2945     1973     1974 1
    2946     3283     3285 1
    2947     3496     3497 1
    2948    10511    10513 1
    2949     5024     5025 1
    2950     4321     4322 1
    2951     3991     3972 1
    2952     2977     2978 1
    2953    10058    10059 1
    2954     7979     7980 1
    2955    12179    12181 1
    2956    10262    10264 1
    2957    10220    10221 1
    2958     8141     8142 1
    2959    10976    10977 1
    2960     6347     6349 1
    2961    12893    12894 1
    2962     9221     9222 1
    2963    10343    10345 1
    2964     6740     6742 1
    2965     8819     8820 1
    2966    12188    12190 1
    2967     6707     6709 1
    2968    10541    10543 1
    2969     8462     8464 1
    2970    12296    12298 1
    2971    10271    10273 1
    2972     6275     6277 1
    2973     6305     6306 1
    2974     4375     4376 1
    2975     4164     4165 1
    2976       53       57 1
    2977     4968     4969 1
    2978     2747     2749 1
    2979    10622    10623 1
    2980     3250     3251 1
    2981     3174     3175 1
    2982     4264     4265 1
    2983     1201     1197 1
    2984     1659     1660 1
    2985     2025     2026 1
    2986     1585     1586 1
    2987     3235     3236 1
    2988     1433     1434 1
    2989     1486     1487 1
    2990     6338     6339 1
    2991     2586     2587 1
    2992     3538     3539 1
    2993    11507    11508 1
    2994     7430     7431 1
    2995     9428     9429 1
    2996    11345    11346 1
    2997     5675     5676 1
    2998     9590     9591 1
    2999     9266     9267 1
    3000     4025     4026 1
    3001     9509     9510 1
    3002    11426    11427 1
    3003     2498     2499 1
    3004       79       77 1
    3005      875      879 1
    3006     7196     7197 1
    3007     3638     3637 1
    3008     8480     8481 1
    3009     5258     5260 1
    3010     2763     2765 1
    3011     4756     4757 1
    3012     4316     4317 1
    3013     4784     4785 1
    3014     1095     1096 1
    3015     8990     8992 1
    3016     6911     6913 1
    3017    12824    12826 1
    3018     8585     8587 1
    3019     8666     8668 1
    3020    10745    10747 1
    3021    11069    11071 1
    3022    11693    11694 1
    3023     6578     6580 1
    3024    10412    10414 1
    3025     6767     6769 1
    3026     6497     6499 1
    3027     8603     8605 1
    3028    10574    10576 1
    3029    11423    11424 1
    3030     8738     8740 1
    3031    11531    11532 1
    3032     8333     8335 1
    3033     4889     4890 1
    3034      162      163 1
    3035     2604     2605 1
    3036     1977     1980 1
    3037      431      427 1
    3038     1544     1528 1
    3039      491      493 1
    3040      567      569 1
    3041    11150    11152 1
    3042     2018     2019 1
    3043     2662     2663 1
    3044      423      420 1
    3045     2481     2482 1
    3046    11540    11541 1
    3047     9623     9624 1
    3048     5480     5481 1
    3049     8705     8706 1
    3050     6788     6789 1
    3051    11702    11703 1
    3052     8867     8868 1
    3053     8816     8818 1
    3054     9785     9786 1
    3055     4491     4492 1
    3056     4765     4766 1
    3057    11729    11730 1
    3058     6002     6004 1
    3059     5678     5680 1
    3060     9512     9514 1
    3061     7433     7435 1
    3062     8081     8083 1
    3063     7595     7597 1
    3064    11753    11755 1
    3065    11429    11431 1
    3066      241      237 1
    3067     7919     7921 1
    3068     7586     7588 1
    3069     5330     5332 1
    3070     1032     1033 1
    3071     5074     5075 1
    3072     4981     4963 1
    3073     8450     8452 1
    3074    10205    10207 1
    3075     4661     4660 1
    3076      534      533 1
    3077      737      740 1
    3078    10133    10135 1
    3079     9806     9808 1
    3080     8753     8755 1
    3081    12047    12049 1
    3082     8429     8431 1
    3083    11885    11887 1
    3084     6512     6514 1
    3085     8051     8053 1
    3086     9968     9970 1
    3087      565      569 1
    3088     5972     5974 1
    3089     1488     1489 1
    3090     5708     5709 1
    3091      795      796 1
    3092     7313     7315 1
    3093    11795    11797 1
    3094     7151     7153 1
    3095     6206     6208 1
    3096    11633    11635 1
    3097     6395     6397 1
    3098    12146    12148 1
    3099     9041     9043 1
    3100     7124     7126 1
    3101     8906     8908 1
    3102     6827     6829 1
    3103     5654     5655 1
    3104     3342     3341 1
    3105     7895     7897 1
    3106    11897    11898 1
    3107     6146     6147 1
    3108     7685     7686 1
    3109     7523     7524 1
    3110     9440     9441 1
    3111     9980     9981 1
    3112    10142    10143 1
    3113    11357    11358 1
    3114     3689     3690 1
    3115      434      433 1
    3116     3992     3989 1
    3117    12833    12834 1
    3118     6344     6345 1
    3119     9638     9639 1
    3120    12257    12258 1
    3121    10340    10341 1
    3122    12419    12420 1
    3123     5804     5805 1
    3124     8261     8262 1
    3125     2798     2797 1
    3126    10178    10179 1
    3127    11717    11718 1
    3128     3872     3875 1
    3129     2901     2903 1
    3130     1327     1326 1
    3131     4839     4838 1
    3132      880      883 1
    3133     6614     6615 1
    3134     1365     1368 1
    3135     8843     8844 1
    3136     3264     3265 1
    3137     3900     3901 1
    3138     1822     1821 1
    3139     1490     1491 1
    3140     4630     4631 1
    3141    10682    10684 1
    3142     6848     6850 1
    3143     5585     5586 1
    3144     7664     7665 1
    3145    10931    10932 1
    3146    11660    11661 1
    3147     1905     1906 1
    3148     3853     3834 1
    3149     4057     4058 1
    3150     2738     2739 1
    3151     2937     2938 1
    3152     3013     3014 1
    3153     2637     2638 1
    3154     1774     1775 1
    3155      480      481 1
    3156     2046     2047 1
    3157     8831     8832 1
    3158     3786     3788 1
    3159     2600     2601 1
    3160     2172     2173 1
    3161      967      970 1
    3162     5417     5419 1
    3163    12326    12328 1
    3164       19       20 1
    3165     2537     2538 1
    3166     1892     1893 1
    3167     8225     8227 1
    3168     2226     2227 1
    3169     2440     2441 1
    3170    11675    11676 1
    3171     3350     3351 1
    3172     1740     1741 1
    3173     8417     8419 1
    3174     6908     6909 1
    3175    12443    12445 1
    3176     3932     3933 1
    3177    12026    12028 1
    3178     8441     8442 1
    3179    11105    11107 1
    3180     1867     1868 1
    3181     2069     2070 1
    3182    11120    11122 1
    3183     4439     4438 1
    3184     2588     2572 1
    3185     5327     5328 1
    3186     5221     5222 1
    3187      774      775 1
    3188     1628     1629 1
    3189     4145     4146 1
    3190     8612     8614 1
    3191     9692     9694 1
    3192    11609    11611 1
    3193    10691    10693 1
    3194     5858     5860 1
    3195    12608    12610 1
    3196    12446    12448 1
    3197    12530    12531 1
    3198     8993     8994 1
    3199    12827    12828 1
    3200     9074     9075 1
    3201     6698     6699 1
    3202     6455     6456 1
    3203    10451    10452 1
    3204       62       61 1
    3205    12287    12288 1
    3206     8453     8454 1
    3207     8006     8007 1
    3208     3810     3809 1
    3209     7838     7839 1
    3210     5759     5760 1
    3211     9917     9918 1
    3212     8000     8001 1
    3213    11510    11511 1
    3214     9755     9756 1
    3215      881      884 1
    3216     9431     9432 1
    3217    11348    11349 1
    3218     5921     5922 1
    3219     8858     8859 1
    3220     4951     4952 1
    3221     1730     1731 1
    3222     6509     6510 1
    3223     4306     4307 1
    3224     8363     8365 1
    3225     8201     8203 1
    3226    11081    11082 1
    3227     6284     6286 1
    3228     6122     6124 1
    3229    11195    11196 1
    3230     6923     6925 1
    3231     4378     4379 1
    3232     4220     4221 1
    3233     4920     4921 1
    3234     4648     4649 1
    3235      683      684 1
    3236     4694     4695 1
    3237    12725    12727 1
    3238     4399     4400 1
    3239     5090     5091 1
    3240     5047     5048 1
    3241     8561     8563 1
    3242     8843     8845 1
    3243    12920    12922 1
    3244     7088     7090 1
    3245    12515    12517 1
    3246    10841    10843 1
    3247    10679    10681 1
    3248     8924     8926 1
    3249     2362     2363 1
    3250    12677    12679 1
    3251     6845     6847 1
    3252      787      788 1
    3253     3457     3458 1
    3254     3950     3949 1
    3255     2953     2955 1
    3256     1243     1245 1
    3257     4016     4012 1
    3258     6983     6985 1
    3259     3145     3146 1
    3260      405      404 1
    3261     3421     3423 1
    3262     9686     9688 1
    3263    11789    11790 1
    3264     9035     9036 1
    3265     7145     7146 1
    3266     6389     6390 1
    3267     7118     7119 1
    3268    12140    12141 1
    3269     9386     9387 1
    3270    10979    10980 1
    3271    11627    11628 1
    3272     6200     6201 1
    3273     3269     3273 1
    3274    11462    11464 1
    3275     4149     4148 1
    3276     2812     2809 1
    3277     5300     5302 1
    3278    12629    12631 1
    3279     5059     5060 1
    3280    10796    10797 1
    3281      613      616 1
    3282     1043     1045 1
    3283     4229     4228 1
    3284     4518     4519 1
    3285     3558     3556 1
    3286     3780     3783 1
    3287     4381     4382 1
    3288     4801     4783 1
    3289     4304     4305 1
    3290     1804     1805 1
    3291     4843     4844 1
    3292     4354     4355 1
    3293     4626     4627 1
    3294     5011     5012 1
    3295      848      849 1
    3296    10700    10702 1
    3297     9161     9163 1
    3298     3643     3645 1
    3299     8048     8050 1
    3300    12194    12195 1
    3301     3745     3741 1
    3302     6005     6007 1
    3303    11756    11758 1
    3304     5762     5764 1
    3305     9839     9841 1
    3306     9920     9922 1
    3307     8003     8005 1
    3308     9326     9328 1
    3309     8084     8086 1
    3310     9758     9760 1
    3311    10784    10785 1
    3312     6950     6951 1
    3313     4094     4095 1
    3314     3241     3242 1
    3315     2200     2201 1
    3316     1555     1556 1
    3317     2975     2976 1
    3318     4698     4699 1
    3319     5239     5238 1
    3320     4539     4538 1
    3321    11042    11044 1
    3322     4192     4193 1
    3323    10790    10792 1
    3324     7583     7585 1
    3325     2833     2834 1
    3326     2033     2015 1
    3327     3045     3049 1
    3328     5357     5358 1
    3329     3645     3642 1
    3330     6995     6997 1
    3331     1346     1348 1
    3332    12428    12430 1
    3333     1381     1385 1
    3334     4597     4598 1
    3335     4970     4971 1
    3336     4325     4326 1
    3337     8630     8632 1
    3338    12464    12466 1
    3339    11546    11548 1
    3340     9467     9469 1
    3341      449      450 1
    3342      525      526 1
    3343    12302    12304 1
    3344     5633     5635 1
    3345     6713     6715 1
    3346    10547    10549 1
    3347     4227     4228 1
    3348       81       82 1
    3349     1378     1379 1
    3350     4376     4377 1
    3351     5247     5248 1
    3352     4162     4163 1
    3353     5235     5236 1
    3354     4388     4389 1
    3355     6650     6651 1
    3356     4078     4079 1
    3357     3149     3150 1
    3358     3689     3693 1
    3359     1017     1018 1
    3360     8597     8598 1
    3361     5852     5854 1
    3362     7490     7491 1
    3363    12440    12442 1
    3364     8606     8608 1
    3365     9569     9570 1
    3366     7652     7653 1
    3367     9947     9948 1
    3368     6140     6141 1
    3369     8192     8193 1
    3370    10685    10687 1
    3371     8879     8881 1
    3372     3170     3171 1
    3373     8513     8515 1
    3374     8594     8596 1
    3375      625      626 1
    3376      549      550 1
    3377      827      828 1
    3378     1093     1094 1
    3379     5185     5186 1
    3380     3253     3255 1
    3381     1354     1355 1
    3382     8675     8677 1
    3383     5951     5952 1
    3384     5876     5877 1
    3385    12707    12708 1
    3386     1038     1039 1
    3387     1316     1317 1
    3388    10412    10413 1
    3389     5126     5127 1
    3390     3792     3793 1
    3391     4718     4719 1
    3392     1415     1416 1
    3393     5207     5208 1
    3394     3776     3775 1
    3395     4562     4563 1
    3396     1869     1871 1
    3397     7115     7117 1
    3398     7277     7279 1
    3399    11192    11194 1
    3400    11111    11113 1
    3401     9356     9358 1
    3402     9113     9115 1
    3403     7358     7360 1
    3404     7520     7522 1
    3405     9194     9196 1
    3406    10409    10411 1
    3407     2645     2646 1
    3408     1165     1167 1
    3409     5585     5587 1
    3410     7664     7666 1
    3411    10931    10933 1
    3412     2677     2678 1
    3413    11660    11662 1
    3414     8516     8517 1
    3415     1602     1603 1
    3416     1151     1153 1
    3417     3137     3139 1
    3418     3296     3297 1
    3419     2581     2582 1
    3420     2997     2998 1
    3421     1936     1937 1
    3422     1664     1665 1
    3423     1933     1934 1
    3424     2089     2090 1
    3425     1581     1584 1
    3426     2298     2299 1
    3427     6749     6750 1
    3428     3385     3386 1
    3429     5420     5422 1
    3430     3023     3026 1
    3431     6662     6663 1
    3432     8660     8661 1
    3433     6743     6744 1
    3434    12575    12576 1
    3435    10739    10740 1
    3436     8579     8580 1
    3437    10496    10497 1
    3438    11747    11749 1
    3439     8498     8499 1
    3440     2618     2619 1
    3441     1184     1185 1
    3442    12173    12174 1
    3443    10256    10257 1
    3444    12416    12417 1
    3445     6341     6342 1
    3446    12254    12255 1
    3447    10337    10338 1
    3448     6260     6261 1
    3449    12011    12012 1
    3450     8258     8259 1
    3451    10175    10176 1
    3452    10382    10383 1
    3453    10100    10102 1
    3454     8021     8023 1
    3455      524      525 1
    3456     8183     8185 1
    3457    12137    12138 1
    3458    12098    12100 1
    3459    11300    11301 1
    3460     7466     7467 1
    3461     8102     8104 1
    3462    11936    11938 1
    3463     7916     7917 1
    3464     7712     7714 1
    3465     6239     6241 1
    3466     3374     3393 1
    3467     3227     3228 1
    3468     5139     5140 1
    3469     2619     2620 1
    3470     4436     4437 1
    3471     1609     1610 1
    3472     1823     1824 1
    3473     2468     2469 1
    3474      685      686 1
    3475      789      792 1
    3476     7757     7758 1
    3477     2236     2237 1
    3478     2080     2081 1
    3479     2462     2463 1
    3480     4108     4109 1
    3481    12170    12171 1
    3482     1689     1692 1
    3483     4997     4999 1
    3484    11588    11589 1
    3485     7673     7674 1
    3486     5594     5595 1
    3487     5837     5838 1
    3488     8555     8557 1
    3489     9671     9672 1
    3490      152      171 1
    3491     7286     7288 1
    3492    11669    11670 1
    3493     3694     3696 1
    3494     3962     3959 1
    3495     9224     9225 1
    3496     2782     2783 1
    3497     7880     7882 1
    3498     7445     7447 1
    3499     5375     5376 1
    3500     4365     4366 1
    3501     5354     5355 1
    3502    10844    10846 1
    3503    12842    12844 1
    3504    10493    10495 1
    3505     7010     7012 1
    3506      599      600 1
    3507     8576     8578 1
    3508     3723     3724 1
    3509    10763    10765 1
    3510    10601    10603 1
    3511     9008     9010 1
    3512     2256     2255 1
    3513     1484     1485 1
    3514     5597     5598 1
    3515    11591    11592 1
    3516     7676     7677 1
    3517     5840     5841 1
    3518     9674     9675 1
    3519    11672    11673 1
    3520     1142     1143 1
    3521     4183     4182 1
    3522     4617     4616 1
    3523     1288     1287 1
    3524      985      986 1
    3525     3442     3443 1
    3526     2164     2165 1
    3527      387      388 1
    3528     5252     5253 1
    3529     8762     8763 1
    3530     3400     3401 1
    3531     3119     3120 1
    3532     1501     1502 1
    3533      927      930 1
    3534     2815     2816 1
    3535     5459     5460 1
    3536     3735     3736 1
    3537      244      242 1
    3538     6149     6151 1
    3539    10064    10066 1
    3540    11819    11821 1
    3541    11900    11902 1
    3542     9983     9985 1
    3543    11981    11983 1
    3544    10145    10147 1
    3545     3110     3111 1
    3546     3034     3035 1
    3547     3237     3238 1
    3548     3838     3835 1
    3549      756      757 1
    3550     5134     5135 1
    3551     8828     8829 1
    3552     4645     4646 1
    3553     2885     2888 1
    3554     1440     1439 1
    3555     2961     2964 1
    3556     3467     3470 1
    3557     2373     2374 1
    3558     6176     6178 1
    3559     4912     4913 1
    3560     1775     1776 1
    3561     2047     2048 1
    3562      611      615 1
    3563     2180     2181 1
    3564     6197     6199 1
    3565    12056    12058 1
    3566     7061     7063 1
    3567    10895    10897 1
    3568      231      233 1
    3569    11894    11896 1
    3570     8060     8062 1
    3571     9977     9979 1
    3572      399      401 1
    3573     8591     8593 1
    3574     8375     8377 1
    3575    12587    12589 1
    3576     6296     6298 1
    3577     8213     8215 1
    3578     6674     6676 1
    3579     6626     6627 1
    3580     5339     5341 1
    3581     6134     6136 1
    3582     2919     2920 1
    3583     2534     2535 1
    3584     1158     1162 1
    3585      158      159 1
    3586     5969     5970 1
    3587     3255     3236 1
    3588     8765     8766 1
    3589     2272     2273 1
    3590     2330     2331 1
    3591     3319     3320 1
    3592    10925    10926 1
    3593      475      478 1
    3594      428      426 1
    3595      715      716 1
    3596      639      640 1
    3597    11408    11409 1
    3598     5642     5643 1
    3599     7721     7722 1
    3600     3229     3232 1
    3601    11555    11556 1
    3602    10016    10017 1
    3603     6182     6183 1
    3604    11933    11934 1
    3605     8099     8100 1
    3606     9854     9855 1
    3607    12095    12096 1
    3608     1131     1132 1
    3609     5462     5463 1
    3610    11987    11989 1
    3611      294      291 1
    3612     1427     1428 1
    3613    11630    11631 1
    3614    11792    11793 1
    3615     6392     6393 1
    3616    12143    12144 1
    3617     8147     8148 1
    3618     8309     8310 1
    3619     6203     6204 1
    3620     6230     6231 1
    3621      323      327 1
    3622     6068     6069 1
    3623     4552     4553 1
    3624     5157     5158 1
    3625     4786     4787 1
    3626      128      127 1
    3627     2907     2908 1
    3628      579      580 1
    3629     4174     4175 1
    3630     1279     1280 1
    3631      503      504 1
    3632    12749    12750 1
    3633     5342     5344 1
    3634     3289     3290 1
    3635     3210     3211 1
    3636     4641     4642 1
    3637     2179     2180 1
    3638     3861     3862 1
    3639     7139     7141 1
    3640    10811    10813 1
    3641    10892    10894 1
    3642     9056     9058 1
    3643    12362    12363 1
    3644     8894     8896 1
    3645     8975     8977 1
    3646     7058     7060 1
    3647      456      457 1
    3648     3234     3236 1
    3649     1772     1773 1
    3650     2044     2045 1
    3651     1833     1835 1
    3652     2653     2654 1
    3653     4063     4064 1
    3654     2508     2509 1
    3655     2660     2661 1
    3656     1863     1864 1
    3657      675      676 1
    3658     2077     2078 1
    3659     1499     1500 1
    3660     2759     2758 1
    3661     6980     6981 1
    3662      180      181 1
    3663     9086     9087 1
    3664    10979    10981 1
    3665     2174     2175 1
    3666     2214     2215 1
    3667     7934     7936 1
    3668     1555     1554 1
    3669      191      194 1
    3670     6119     6121 1
    3671     3737     3734 1
    3672     8273     8275 1
    3673     1578     1577 1
    3674      248      245 1
    3675     4622     4623 1
    3676     7019     7021 1
    3677    11771    11773 1
    3678    11015    11017 1
    3679     7775     7777 1
    3680     7937     7939 1
    3681     8774     8776 1
    3682     6020     6022 1
    3683    12503    12504 1
    3684    12125    12126 1
    3685    10667    10668 1
    3686    12908    12909 1
    3687     7076     7077 1
    3688     6536     6537 1
    3689     8291     8292 1
    3690    12206    12207 1
    3691    10370    10371 1
    3692     6833     6834 1
    3693    11759    11760 1
    3694     2445     2446 1
    3695     2598     2599 1
    3696     5212     5196 1
    3697     5531     5532 1
    3698     3448     3449 1
    3699     9191     9192 1
    3700     7355     7356 1
    3701    11189    11190 1
    3702     9353     9354 1
    3703     7274     7275 1
    3704     9110     9111 1
    3705     7517     7518 1
    3706    10985    10987 1
    3707     3019     3020 1
    3708    11270    11271 1
    3709     3023     3025 1
    3710     6785     6787 1
    3711     6866     6868 1
    3712     7406     7408 1
    3713    11240    11242 1
    3714     7325     7327 1
    3715     8621     8623 1
    3716    12455    12457 1
    3717     4528     4512 1
    3718     2144     2143 1
    3719     5099     5100 1
    3720     4454     4455 1
    3721     6032     6033 1
    3722     5426     5428 1
    3723       47       50 1
    3724     4261     4243 1
    3725     2134     2135 1
    3726     5028     5027 1
    3727     2406     2407 1
    3728     4276     4260 1
    3729     5411     5413 1
    3730     3135     3131 1
    3731     4492     4476 1
    3732      145      147 1
    3733     5708     5710 1
    3734     2811     2809 1
    3735    12173    12175 1
    3736    10256    10258 1
    3737    12416    12418 1
    3738    12254    12256 1
    3739    10337    10339 1
    3740     3661     3660 1
    3741     5033     5036 1
    3742     6260     6262 1
    3743    10175    10177 1
    3744    12011    12013 1
    3745      173      174 1
    3746     5654     5656 1
    3747     6362     6363 1
    3748     7955     7956 1
    3749     6551     6552 1
    3750    10223    10224 1
    3751     8117     8118 1
    3752     3007     3008 1
    3753    10952    10953 1
    3754    12869    12870 1
    3755     5714     5715 1
    3756     5552     5553 1
    3757      523      521 1
    3758     3089     3085 1
    3759      813      816 1
    3760     2370     2371 1
    3761     2532     2533 1
    3762     2584     2585 1
    3763     2820     2822 1
    3764      505      506 1
    3765      537      540 1
    3766     3547     3545 1
    3767    11252    11253 1
    3768     7256     7257 1
    3769    11171    11172 1
    3770     7094     7095 1
    3771     7337     7338 1
    3772     9092     9093 1
    3773     7499     7500 1
    3774     6614     6616 1
    3775    11090    11091 1
    3776     9173     9174 1
    3777     4841     4842 1
    3778     1329     1330 1
    3779     6956     6958 1
    3780     3504     3507 1
    3781     9776     9777 1
    3782     4738     4737 1
    3783     4249     4248 1
    3784     4463     4464 1
    3785     4249     4250 1
    3786     4949     4950 1
    3787     1203     1206 1
    3788    10661    10662 1
    3789    12902    12903 1
    3790    12740    12741 1
    3791      393      394 1
    3792    10904    10905 1
    3793     8285     8286 1
    3794    12497    12498 1
    3795    12659    12660 1
    3796    10364    10365 1
    3797     6530     6531 1
    3798     6332     6333 1
    3799     8249     8250 1
    3800    12245    12246 1
    3801     9626     9627 1
    3802     5309     5310 1
    3803    11543    11544 1
    3804     5792     5793 1
    3805     9788     9789 1
    3806    11705    11706 1
    3807    12083    12084 1
    3808     9167     9169 1
    3809    12260    12262 1
    3810     4057     4061 1
    3811     3420     3439 1
    3812     1503     1504 1
    3813     1209     1210 1
    3814     2597     2598 1
    3815     5086     5087 1
    3816     1952     1953 1
    3817     2221     2222 1
    3818     4421     4422 1
    3819      431      429 1
    3820     2497     2498 1
    3821      401      382 1
    3822    11870    11872 1
    3823    12032    12034 1
    3824     5177     5178 1
    3825     1673     1655 1
    3826     3827     3829 1
    3827     5441     5442 1
    3828     8399     8400 1
    3829     8978     8980 1
    3830       94       93 1
    3831     7841     7842 1
    3832     2551     2552 1
    3833     2493     2494 1
    3834     4745     4746 1
    3835     2022     2021 1
    3836     1797     1800 1
    3837     4441     4442 1
    3838     6833     6835 1
    3839     4549     4531 1
    3840     9170     9172 1
    3841     1070     1072 1
    3842     4761     4760 1
    3843      819      820 1
    3844     3542     3543 1
    3845     4761     4762 1
    3846      544      545 1
    3847     3128     3129 1
    3848     3122     3123 1
    3849     1415     1414 1
    3850     1083     1084 1
    3851       91       90 1
    3852     1282     1283 1
    3853       26       25 1
    3854    12038    12040 1
    3855      691      692 1
    3856     2353     2354 1
    3857    11081    11083 1
    3858     2759     2760 1
    3859     3954     3955 1
    3860      677      658 1
    3861     2312     2311 1
    3862     5096     5097 1
    3863      479      480 1
    3864     4490     4491 1
    3865    12062    12063 1
    3866     5069     5071 1
    3867    11294    11296 1
    3868    12314    12316 1
    3869     2228     2212 1
    3870     2100     2101 1
    3871     1938     1939 1
    3872     2642     2643 1
    3873     4011     4015 1
    3874     3956     3957 1
    3875     1349     1352 1
    3876     6935     6937 1
    3877     6302     6303 1
    3878       44       43 1
    3879       87       86 1
    3880      173      172 1
    3881     4022     4023 1
    3882     3304     3305 1
    3883     3307     3308 1
    3884     2836     2837 1
    3885     6851     6853 1
    3886     3729     3733 1
    3887    11153    11154 1
    3888    11327    11328 1
    3889     1945     1944 1
    3890     8234     8235 1
    3891     6398     6399 1
    3892     8153     8154 1
    3893    12149    12150 1
    3894     6317     6318 1
    3895     6074     6075 1
    3896     6236     6237 1
    3897     8315     8316 1
    3898     5744     5746 1
    3899    12230    12231 1
    3900     5492     5494 1
    3901     3476     3477 1
    3902      774      773 1
    3903     1911     1910 1
    3904     3099     3102 1
    3905     4621     4622 1
    3906     4992     4993 1
    3907      864      865 1
    3908      991      992 1
    3909      915      916 1
    3910     4740     4741 1
    3911      441      442 1
    3912     4455     4456 1
    3913     3089     3090 1
    3914    10997    10999 1
    3915     3212     3213 1
    3916      857      858 1
    3917     3183     3187 1
    3918    12614    12616 1
    3919    12071    12073 1
    3920     2350     2351 1
    3921     5153     5154 1
    3922     4123     4124 1
    3923     2396     2397 1
    3924     2130     2131 1
    3925      664      665 1
    3926     4693     4675 1
    3927    11099    11101 1
    3928     2323     2322 1
    3929     3886     3887 1
    3930     4088     4089 1
    3931     2691     2692 1
    3932     3895     3896 1
    3933     4395     4394 1
    3934     4239     4238 1
    3935     1483     1484 1
    3936      417      415 1
    3937     4312     4296 1
    3938    12650    12651 1
    3939     2861     2865 1
    3940     2327     2328 1
    3941     1624     1625 1
    3942      343      344 1
    3943     3426     3427 1
    3944    11342    11344 1
    3945     2141     2123 1
    3946     5891     5892 1
    3947     3023     3024 1
    3948     2451     2452 1
    3949      176      175 1
    3950      899      900 1
    3951     4356     4357 1
    3952     1446     1447 1
    3953      502      503 1
    3954      887      891 1
    3955    12113    12115 1
    3956     3078     3079 1
    3957     4457     4458 1
    3958      391      392 1
    3959     4931     4932 1
    3960     4410     4411 1
    3961     4769     4770 1
    3962     4601     4602 1
    3963     1077     1076 1
    3964      811      810 1
    3965     4318     4317 1
    3966      928      932 1
    3967      603      604 1
    3968    11738    11740 1
    3969     7823     7825 1
    3970     9821     9823 1
    3971     8066     8068 1
    3972     7985     7987 1
    3973     3440     3437 1
    3974     7580     7582 1
    3975     5987     5989 1
    3976     3463     3459 1
    3977     9902     9904 1
    3978     6233     6235 1
    3979     1419     1420 1
    3980     4337     4338 1
    3981     3249     3250 1
    3982      594      595 1
    3983    10079    10081 1
    3984     9890     9892 1
    3985    11834    11836 1
    3986     4543     4544 1
    3987      540      541 1
    3988     7811     7813 1
    3989     5894     5896 1
    3990     6056     6058 1
    3991    11996    11998 1
    3992     7787     7788 1
    3993     5273     5275 1
    3994     5522     5524 1
    3995     5282     5284 1
    3996     1769     1770 1
    3997     1552     1553 1
    3998     3091     3093 1
    3999     1963     1964 1
    4000     3126     3127 1
    4001     8384     8386 1
    4002     6143     6145 1
    4003     9140     9142 1
    4004     8222     8224 1
    4005     7223     7225 1
    4006     6305     6307 1
    4007    11057    11059 1
    4008    12209    12211 1
    4009    10130    10132 1
    4010    12371    12373 1
    4011      126      123 1
    4012     3109     3110 1
    4013     2999     3000 1
    4014     6077     6078 1
    4015     7070     7072 1
    4016    10661    10663 1
    4017     8285     8287 1
    4018    12902    12904 1
    4019    12740    12742 1
    4020    12497    12499 1
    4021    10823    10825 1
    4022     6530     6532 1
    4023     2223     2224 1
    4024    10364    10366 1
    4025      438      437 1
    4026    12623    12624 1
    4027    12119    12121 1
    4028      146      145 1
    4029      411      410 1
    4030      282      281 1
    4031     8516     8518 1
    4032      111      112 1
    4033     3005     3006 1
    4034     1993     1994 1
    4035     4131     4132 1
    4036     1559     1560 1
    4037     2476     2477 1
    4038     1658     1659 1
    4039      305      304 1
    4040     9071     9072 1
    4041     2273     2274 1
    4042     2325     2326 1
    4043     5233     5215 1
    4044    12059    12060 1
    4045     6749     6751 1
    4046    10847    10848 1
    4047     6014     6015 1
    4048     7013     7014 1
    4049     8768     8769 1
    4050     7769     7770 1
    4051    11009    11010 1
    4052    11765    11766 1
    4053     1481     1482 1
    4054      237      240 1
    4055     7931     7932 1
    4056     1408     1409 1
    4057    12029    12030 1
    4058     2430     2431 1
    4059     8684     8686 1
    4060     2929     2930 1
    4061    11525    11526 1
    4062     5774     5775 1
    4063     7421     7422 1
    4064     9770     9771 1
    4065     9608     9609 1
    4066     5666     5667 1
    4067    11417    11418 1
    4068    11687    11688 1
    4069     2157     2158 1
    4070     9500     9501 1
    4071      691      694 1
    4072    12785    12786 1
    4073     4623     4624 1
    4074      451      452 1
    4075    11504    11506 1
    4076     8951     8952 1
    4077     9587     9589 1
    4078    10949    10950 1
    4079     5699     5701 1
    4080      651      652 1
    4081     1129     1130 1
    4082     2241     2242 1
    4083    12722    12724 1
    4084     7319     7321 1
    4085     3219     3220 1
    4086     6629     6631 1
    4087     8771     8772 1
    4088    11012    11013 1
    4089      961      960 1
    4090     4636     4620 1
    4091     1037     1036 1
    4092    12368    12369 1
    4093    10127    10128 1
    4094     4442     4443 1
    4095     4237     4238 1
    4096     5038     5039 1
    4097     2089     2088 1
    4098     8177     8179 1
    4099     4393     4394 1
    4100     2169     2170 1
    4101     2441     2442 1
    4102     5369     5371 1
    4103      721      723 1
    4104      932      934 1
    4105      797      799 1
    4106     2019     2020 1
    4107     2233     2234 1
    4108     1643     1644 1
    4109     4102     4103 1
    4110     2323     2324 1
    4111     2109     2110 1
    4112    11993    11995 1
    4113     2285     2267 1
    4114     1869     1872 1
    4115     8996     8997 1
    4116     8726     8727 1
    4117     6809     6810 1
    4118    12560    12561 1
    4119     6971     6972 1
    4120    12803    12804 1
    4121    12641    12642 1
    4122      428      427 1
    4123    10724    10725 1
    4124     3275     3279 1
    4125     8528     8529 1
    4126    11717    11719 1
    4127      386      387 1
    4128     8468     8470 1
    4129     6917     6918 1
    4130    11951    11953 1
    4131     1262     1263 1
    4132     3101     3097 1
    4133     9935     9936 1
    4134     2987     2988 1
    4135     9473     9475 1
    4136     3540     3539 1
    4137     5519     5520 1
    4138     4631     4632 1
    4139     5279     5280 1
    4140     8288     8290 1
    4141    12122    12124 1
    4142     7451     7453 1
    4143     6533     6535 1
    4144    10367    10369 1
    4145    11285    11287 1
    4146     7289     7291 1
    4147     8669     8670 1
    4148    10061    10063 1
    4149    11816    11818 1
    4150     3327     3331 1
    4151     8588     8589 1
    4152      806      807 1
    4153    10748    10749 1
    4154     6752     6753 1
    4155     9359     9361 1
    4156    12584    12585 1
    4157    11438    11440 1
    4158     4612     4613 1
    4159    10910    10912 1
    4160     5813     5814 1
    4161    11915    11916 1
    4162     9998     9999 1
    4163     9647     9648 1
    4164     6164     6165 1
    4165     1133     1134 1
    4166     4407     4408 1
    4167     1323     1324 1
    4168    10160    10161 1
    4169    11726    11727 1
    4170     9545     9546 1
    4171     5363     5364 1
    4172     4339     4338 1
    4173     2878     2879 1
    4174     2799     2800 1
    4175     5252     5254 1
    4176      560      564 1
    4177     5846     5847 1
    4178     3303     3304 1
    4179     3627     3628 1
    4180     3113     3114 1
    4181     3948     3949 1
    4182     3099     3101 1
    4183     4173     4174 1
    4184     4659     4660 1
    4185     8828     8830 1
    4186     4987     4988 1
    4187     1706     1707 1
    4188      691      695 1
    4189     2568     2569 1
    4190     4498     4499 1
    4191     1529     1530 1
    4192     4629     4630 1
    4193       15       17 1
    4194      947      948 1
    4195     5483     5485 1
    4196     5387     5389 1
    4197     3686     3683 1
    4198     9479     9481 1
    4199    10277    10279 1
    4200     6626     6628 1
    4201     4961     4963 1
    4202     4137     4138 1
    4203     3340     3339 1
    4204    10817    10818 1
    4205     8900     8901 1
    4206      881      883 1
    4207    12896    12897 1
    4208    12734    12735 1
    4209     8279     8280 1
    4210     7064     7065 1
    4211     1657     1656 1
    4212      447      445 1
    4213    10358    10359 1
    4214     6407     6408 1
    4215     3903     3902 1
    4216     2942     2943 1
    4217      250      251 1
    4218      984      985 1
    4219     5109     5110 1
    4220      642      643 1
    4221      908      909 1
    4222      718      719 1
    4223    11030    11031 1
    4224     5121     5122 1
    4225     5167     5168 1
    4226     4308     4309 1
    4227     1761     1764 1
    4228     4576     4577 1
    4229     1406     1407 1
    4230     3166     3167 1
    4231     3908     3907 1
    4232     1330     1331 1
    4233     7124     7125 1
    4234     7307     7308 1
    4235     4570     4571 1
    4236     8873     8874 1
    4237     4414     4415 1
    4238     7175     7176 1
    4239    12926    12927 1
    4240    12764    12765 1
    4241     8930     8931 1
    4242    10928    10929 1
    4243    10445    10447 1
    4244     1651     1652 1
    4245     1922     1921 1
    4246     5030     5031 1
    4247     4153     4154 1
    4248     2625     2627 1
    4249     4813     4814 1
    4250     3965     3967 1
    4251     1183     1164 1
    4252    11867    11868 1
    4253     8411     8412 1
    4254     1639     1640 1
    4255     6494     6495 1
    4256     7871     7872 1
    4257     6116     6117 1
    4258    10328    10329 1
    4259     3725     3726 1
    4260     5390     5392 1
    4261     5954     5955 1
    4262     9155     9157 1
    4263     2742     2743 1
    4264     1339     1335 1
    4265     4910     4911 1
    4266     8657     8659 1
    4267      217      215 1
    4268     4087     4088 1
    4269     9245     9247 1
    4270    10730    10732 1
    4271     6977     6979 1
    4272    12809    12811 1
    4273     8732     8734 1
    4274    12647    12649 1
    4275     6815     6817 1
    4276    12566    12568 1
    4277     4977     4978 1
    4278     9002     9004 1
    4279     1801     1802 1
    4280     1020     1024 1
    4281      737      739 1
    4282     1019     1020 1
    4283     3640     3637 1
    4284     3906     3905 1
    4285     2368     2369 1
    4286     2096     2097 1
    4287       17       13 1
    4288      751      752 1
    4289    12866    12868 1
    4290     9938     9940 1
    4291     2637     2641 1
    4292     9521     9523 1
    4293     4601     4603 1
    4294      340      337 1
    4295     6863     6864 1
    4296     9698     9699 1
    4297     8618     8619 1
    4298     5864     5865 1
    4299     3945     3926 1
    4300     5702     5703 1
    4301    11615    11616 1
    4302    12614    12615 1
    4303     9416     9418 1
    4304    12452    12453 1
    4305    11135    11136 1
    4306     3937     3936 1
    4307     3781     3784 1
    4308     1202     1205 1
    4309     3347     3328 1
    4310    11612    11614 1
    4311     6023     6024 1
    4312     7199     7201 1
    4313     8492     8493 1
    4314    12530    12532 1
    4315    10325    10326 1
    4316    11555    11557 1
    4317     4533     4534 1
    4318      999      980 1
    4319     4377     4378 1
    4320      790      794 1
    4321      214      213 1
    4322     1111     1114 1
    4323    12221    12223 1
    4324    11222    11224 1
    4325     8954     8956 1
    4326     9953     9955 1
    4327     8036     8038 1
    4328     5957     5959 1
    4329     7388     7390 1
    4330     9791     9793 1
    4331     6308     6310 1
    4332    10871    10873 1
    4333    12356    12358 1
    4334     6944     6945 1
    4335     3429     3428 1
    4336     4240     4224 1
    4337     4889     4891 1
    4338      825      826 1
    4339     4966     4967 1
    4340     4617     4618 1
    4341     4075     4076 1
    4342     3727     3728 1
    4343     2872     2873 1
    4344    11810    11811 1
    4345     6221     6222 1
    4346     8354     8355 1
    4347     9005     9007 1
    4348     6599     6600 1
    4349    12350    12351 1
    4350    10595    10596 1
    4351    10433    10434 1
    4352    11648    11649 1
    4353     6899     6901 1
    4354     3413     3414 1
    4355     4117     4099 1
    4356     1560     1561 1
    4357     4093     4094 1
    4358     3240     3241 1
    4359     5543     5545 1
    4360     3789     3791 1
    4361     2249     2231 1
    4362     4921     4922 1
    4363     1914     1915 1
    4364     1972     1973 1
    4365     2128     2129 1
    4366      669      670 1
    4367     2582     2583 1
    4368    12236    12238 1
    4369     8321     8323 1
    4370    12155    12157 1
    4371     8240     8242 1
    4372     6242     6244 1
    4373     6323     6325 1
    4374     3118     3119 1
    4375     2852     2853 1
    4376    12074    12076 1
    4377     8159     8161 1
    4378    11525    11527 1
    4379    11687    11689 1
    4380     5774     5776 1
    4381     7421     7423 1
    4382     9770     9772 1
    4383     9608     9610 1
    4384     5666     5668 1
    4385    11417    11419 1
    4386     9500     9502 1
    4387    10121    10123 1
    4388    11945    11946 1
    4389    12107    12108 1
    4390     1293     1294 1
    4391     9089     9090 1
    4392    11168    11169 1
    4393    11249    11250 1
    4394     7334     7335 1
    4395     2210     2211 1
    4396     7091     7092 1
    4397     1303     1305 1
    4398      330      334 1
    4399     7496     7497 1
    4400     9332     9333 1
    4401     7898     7899 1
    4402     4250     4251 1
    4403     3873     3876 1
    4404     4256     4257 1
    4405     4678     4679 1
    4406      636      637 1
    4407     3869     3867 1
    4408    12644    12645 1
    4409     4006     4005 1
    4410    10313    10314 1
    4411     6479     6480 1
    4412    10232    10233 1
    4413     8558     8559 1
    4414     8396     8397 1
    4415    10394    10395 1
    4416     6560     6561 1
    4417     3983     3984 1
    4418     8477     8478 1
    4419     9959     9960 1
    4420     1977     1978 1
    4421     7442     7444 1
    4422     1295     1298 1
    4423     3701     3702 1
    4424      277      281 1
    4425     3209     3190 1
    4426     3699     3697 1
    4427    10355    10356 1
    4428     9614     9615 1
    4429     9197     9198 1
    4430     2998     3001 1
    4431     3918     3921 1
    4432     1203     1204 1
    4433     4831     4832 1
    4434      749      753 1
    4435     4705     4706 1
    4436     2191     2192 1
    4437     1820     1821 1
    4438     8708     8710 1
    4439    10706    10708 1
    4440     3955     3956 1
    4441     2823     2825 1
    4442     2420     2421 1
    4443     1830     1831 1
    4444     3194     3195 1
    4445     3766     3767 1
    4446     3749     3748 1
    4447     1065     1069 1
    4448     2084     2068 1
    4449    11402    11404 1
    4450     2423     2422 1
    4451     1778     1777 1
    4452     2648     2647 1
    4453     8114     8115 1
    4454     4406     4405 1
    4455     3851     3854 1
    4456     3099     3100 1
    4457     2448     2449 1
    4458     2454     2455 1
    4459     2952     2955 1
    4460     8084     8085 1
    4461     5735     5736 1
    4462     5546     5547 1
    4463     7841     7843 1
    4464     5807     5808 1
    4465    10721    10722 1
    4466    12800    12801 1
    4467     8804     8805 1
    4468     9641     9642 1
    4469     6887     6888 1
    4470    12638    12639 1
    4471    11720    11721 1
    4472     1199     1197 1
    4473     3633     3634 1
    4474    11963    11964 1
    4475     4578     4579 1
    4476     4624     4625 1
    4477     4500     4501 1
    4478     5145     5146 1
    4479    11777    11778 1
    4480     1411     1414 1
    4481      409      410 1
    4482     1112     1116 1
    4483     1170     1171 1
    4484     4929     4928 1
    4485     4113     4114 1
    4486     7892     7893 1
    4487     4614     4615 1
    4488     3609     3610 1
    4489     2030     2031 1
    4490     3461     3459 1
    4491    11576    11578 1
    4492     7661     7663 1
    4493     5582     5584 1
    4494     9659     9661 1
    4495    11657    11659 1
    4496     5825     5827 1
    4497     2940     2941 1
    4498     1241     1242 1
    4499     3857     3856 1
    4500     8723     8725 1
    4501    12743    12744 1
    4502    12023    12024 1
    4503      512      515 1
    4504     9080     9082 1
    4505     1722     1721 1
    4506     2367     2366 1
    4507     3659     3658 1
    4508     7877     7879 1
    4509     5135     5136 1
    4510     1240     1241 1
    4511     9302     9304 1
    4512     7385     7387 1
    4513    12218    12220 1
    4514     1011     1010 1
    4515    10139    10141 1
    4516    12380    12382 1
    4517     5630     5632 1
    4518    11219    11221 1
    4519     6125     6126 1
    4520     2682     2684 1
    4521    10514    10515 1
    4522     3108     3109 1
    4523     2550     2551 1
    4524     6302     6304 1
    4525     9764     9765 1
    4526     7415     7416 1
    4527     9602     9603 1
    4528    11681    11682 1
    4529      257      258 1
    4530     5768     5769 1
    4531     9494     9495 1
    4532       95       93 1
    4533    11519    11520 1
    4534     5660     5661 1
    4535     7493     7494 1
    4536    11108    11109 1
    4537    12449    12451 1
    4538    10787    10788 1
    4539     1200     1197 1
    4540     3324     3321 1
    4541     9800     9801 1
    4542    11879    11880 1
    4543    12041    12042 1
    4544     8045     8046 1
    4545     5966     5967 1
    4546     9962     9963 1
    4547     1836     1837 1
    4548     8306     8307 1
    4549     2967     2968 1
    4550     3446     3445 1
    4551     4385     4387 1
    4552    12524    12526 1
    4553     6857     6859 1
    4554      703      704 1
    4555     4358     4359 1
    4556     1251     1248 1
    4557      270      271 1
    4558     5168     5169 1
    4559    11072    11073 1
    4560      217      198 1
    4561     3761     3742 1
    4562      785      783 1
    4563     3933     3934 1
    4564     3218     3219 1
    4565     4785     4786 1
    4566     4719     4720 1
    4567     1557     1558 1
    4568     4090     4091 1
    4569     4563     4564 1
    4570     7382     7384 1
    4571     7463     7465 1
    4572    11297    11299 1
    4573     5627     5629 1
    4574    10736    10738 1
    4575     2202     2203 1
    4576     3535     3536 1
    4577     7301     7303 1
    4578     8825     8826 1
    4579    11216    11218 1
    4580     9530     9531 1
    4581      754      755 1
    4582     4273     4274 1
    4583     4487     4488 1
    4584     5132     5133 1
    4585     1310     1311 1
    4586     4429     4430 1
    4587     2307     2308 1
    4588     1668     1669 1
    4589     1928     1929 1
    4590     4105     4106 1
    4591     2511     2512 1
    4592     2453     2454 1
    4593     1802     1803 1
    4594     1588     1589 1
    4595     5648     5649 1
    4596    12101    12102 1
    4597     7727     7728 1
    4598    11561    11562 1
    4599    11939    11940 1
    4600    10022    10023 1
    4601     9860     9861 1
    4602     9482     9483 1
    4603     3315     3316 1
    4604      207      208 1
    4605     1673     1674 1
    4606      262      261 1
    4607     8198     8200 1
    4608    12827    12829 1
    4609     3256     3257 1
    4610    10187    10189 1
    4611     4417     4418 1
    4612     4359     4360 1
    4613     3525     3526 1
    4614     1700     1699 1
    4615     7172     7174 1
    4616     8927     8929 1
    4617    12923    12925 1
    4618    12761    12763 1
    4619     4230     4231 1
    4620     3391     3394 1
    4621    12653    12655 1
    4622      170      169 1
    4623     3562     3559 1
    4624      586      587 1
    4625     4766     4767 1
    4626     1019     1021 1
    4627      949      948 1
    4628     5195     5194 1
    4629     5018     5017 1
    4630     1188     1187 1
    4631     4324     4325 1
    4632     2507     2508 1
    4633     1862     1863 1
    4634     2449     2450 1
    4635     5456     5457 1
    4636     6311     6313 1
    4637     8228     8230 1
    4638     9956     9958 1
    4639    11873    11875 1
    4640     8039     8041 1
    4641    12224    12226 1
    4642     9794     9796 1
    4643     5141     5142 1
    4644    12035    12037 1
    4645     5960     5962 1
    4646     3294     3295 1
    4647      724      721 1
    4648     5202     5203 1
    4649     4499     4500 1
    4650     2898     2899 1
    4651     6404     6406 1
    4652    11207    11208 1
    4653       59       63 1
    4654     5044     5045 1
    4655     5102     5103 1
    4656     5471     5473 1
    4657     5498     5500 1
    4658     7634     7636 1
    4659     2478     2479 1
    4660     3508     3505 1
    4661     2389     2388 1
    4662     4770     4771 1
    4663     2842     2843 1
    4664     6773     6774 1
    4665    11774    11776 1
    4666    12569    12571 1
    4667     6980     6982 1
    4668    10733    10735 1
    4669     9248     9250 1
    4670    12839    12841 1
    4671     6818     6820 1
    4672     8735     8737 1
    4673     2145     2146 1
    4674    10643    10645 1
    4675    12398    12400 1
    4676     6728     6730 1
    4677    10562    10564 1
    4678    10481    10483 1
    4679     8645     8647 1
    4680    12317    12319 1
    4681     1493     1475 1
    4682    12479    12481 1
    4683     6647     6649 1
    4684     7718     7719 1
    4685     3615     3614 1
    4686     1387     1391 1
    4687      907      888 1
    4688    12659    12661 1
    4689    10757    10758 1
    4690     2710     2709 1
    4691     3340     3341 1
    4692     2198     2199 1
    4693     1227     1230 1
    4694     2931     2932 1
    4695     3435     3434 1
    4696     2997     2993 1
    4697     4247     4248 1
    4698     3259     3260 1
    4699     4160     4161 1
    4700      256      255 1
    4701     1674     1675 1
    4702     3058     3059 1
    4703      121      120 1
    4704     3871     3867 1
    4705     9071     9073 1
    4706      923      921 1
    4707     9830     9832 1
    4708     1918     1919 1
    4709     3919     3922 1
    4710      237      239 1
    4711     5216     5217 1
    4712     6605     6607 1
    4713     5981     5982 1
    4714     2926     2927 1
    4715     5525     5526 1
    4716     2238     2239 1
    4717     4101     4102 1
    4718     4198     4199 1
    4719     4009     4010 1
    4720     8087     8088 1
    4721     1126     1127 1
    4722     6008     6009 1
    4723     1645     1646 1
    4724     2244     2245 1
    4725     4366     4367 1
    4726     6998     7000 1
    4727     6407     6409 1
    4728     3213     3214 1
    4729      755      756 1
    4730      869      870 1
    4731     3939     3938 1
    4732     1745     1727 1
    4733     1771     1772 1
    4734     5133     5134 1
    4735     2412     2409 1
    4736     4757     4758 1
    4737     5029     5030 1
    4738    11087    11088 1
    4739     1211     1213 1
    4740     1135     1137 1
    4741     1579     1580 1
    4742     2160     2161 1
    4743     2380     2381 1
    4744     5141     5143 1
    4745     4169     4171 1
    4746      951      952 1
    4747     1027     1028 1
    4748     2146     2147 1
    4749     2152     2153 1
    4750    11021    11022 1
    4751     7025     7026 1
    4752     8780     8781 1
    4753     7943     7944 1
    4754     7781     7782 1
    4755     9743     9745 1
    4756     6026     6027 1
    4757      696      695 1
    4758     8336     8338 1
    4759    10859    10860 1
    4760     6653     6654 1
    4761     1893     1894 1
    4762       27       28 1
    4763     9404     9405 1
    4764     3239     3237 1
    4765     2945     2946 1
    4766     1203     1205 1
    4767     5552     5554 1
    4768     1566     1565 1
    4769     6686     6687 1
    4770    10439    10440 1
    4771     5213     5214 1
    4772     4100     4101 1
    4773    11552    11554 1
    4774     1598     1599 1
    4775     4565     4566 1
    4776     5303     5304 1
    4777    10397    10398 1
    4778     9305     9307 1
    4779     8360     8362 1
    4780    11384    11386 1
    4781    10235    10236 1
    4782    10304    10306 1
    4783     6470     6472 1
    4784     8387     8389 1
    4785     7940     7941 1
    4786     7778     7779 1
    4787     7550     7552 1
    4788     5049     5050 1
    4789    12503    12505 1
    4790    12860    12861 1
    4791     9026     9027 1
    4792     5570     5571 1
    4793     8783     8784 1
    4794    11024    11025 1
    4795     9323     9324 1
    4796     7028     7029 1
    4797    11321    11322 1
    4798     5068     5052 1
    4799    10781    10782 1
    4800      514      518 1
    4801    10694    10695 1
    4802     4309     4310 1
    4803     4303     4304 1
    4804     5849     5851 1
    4805     1004     1005 1
    4806     3138     3142 1
    4807     2880     2881 1
    4808     3724     3725 1
    4809     3155     3156 1
    4810     6959     6961 1
    4811     8795     8797 1
    4812    12548    12550 1
    4813     6797     6799 1
    4814        9        6 1
    4815    10712    10714 1
    4816    12791    12793 1
    4817     8714     8716 1
    4818    12710    12712 1
    4819     6878     6880 1
    4820       31       33 1
    4821     5084     5085 1
    4822     2185     2186 1
    4823     1381     1382 1
    4824     1971     1972 1
    4825     2564     2565 1
    4826     5603     5604 1
    4827     2127     2128 1
    4828     6893     6895 1
    4829     3499     3501 1
    4830     2545     2544 1
    4831     3491     3492 1
    4832     1622     1621 1
    4833       72       71 1
    4834      380      382 1
    4835     5080     5081 1
    4836     2617     2618 1
    4837      938      939 1
    4838      862      863 1
    4839      672      673 1
    4840     2559     2560 1
    4841     5158     5159 1
    4842     4336     4337 1
    4843     4981     4982 1
    4844     1714     1715 1
    4845     9707     9709 1
    4846     6089     6091 1
    4847     6413     6415 1
    4848    11624    11626 1
    4849    12164    12166 1
    4850     5873     5875 1
    4851     6251     6253 1
    4852     6485     6487 1
    4853     1616     1600 1
    4854    10238    10240 1
    4855    10319    10321 1
    4856     8402     8404 1
    4857     8564     8566 1
    4858     3891     3890 1
    4859     8483     8485 1
    4860     6566     6568 1
    4861    10400    10402 1
    4862     9338     9340 1
    4863     2528     2529 1
    4864     1433     1435 1
    4865     8204     8205 1
    4866     3356     3357 1
    4867      130      129 1
    4868     3453     3456 1
    4869     6779     6781 1
    4870     2839     2840 1
    4871     1478     1477 1
    4872     4956     4957 1
    4873     8789     8790 1
    4874      993      994 1
    4875      917      918 1
    4876     6440     6442 1
    4877     7748     7749 1
    4878     7829     7830 1
    4879     8072     8073 1
    4880     7910     7911 1
    4881     1812     1813 1
    4882     9908     9909 1
    4883     7991     7992 1
    4884     1803     1804 1
    4885     2503     2504 1
    4886     7742     7744 1
    4887     4579     4580 1
    4888     5224     5225 1
    4889     4851     4852 1
    4890     6227     6228 1
    4891     2611     2610 1
    4892     2947     2951 1
    4893     1413     1394 1
    4894     8741     8742 1
    4895    10577    10578 1
    4896     6419     6420 1
    4897     6500     6501 1
    4898     8336     8337 1
    4899     6581     6582 1
    4900    12332    12333 1
    4901    10415    10416 1
    4902     8417     8418 1
    4903      305      306 1
    4904     4558     4559 1
    4905     4295     4294 1
    4906     1796     1780 1
    4907      623      624 1
    4908      118      119 1
    4909       85       84 1
    4910     9383     9384 1
    4911    12299    12300 1
    4912     4666     4667 1
    4913     5045     5046 1
    4914     1285     1286 1
    4915    10544    10545 1
    4916     5429     5430 1
    4917     5294     5296 1
    4918     5549     5550 1
    4919      735      736 1
    4920    12452    12454 1
    4921     3937     3938 1
    4922     3940     3941 1
    4923      486      487 1
    4924     6929     6931 1
    4925     5789     5791 1
    4926    11702    11704 1
    4927     5480     5482 1
    4928     6788     6790 1
    4929    11540    11542 1
    4930     9785     9787 1
    4931     9623     9625 1
    4932     8867     8869 1
    4933     4965     4966 1
    4934     4320     4321 1
    4935      619      620 1
    4936     4546     4547 1
    4937      212      213 1
    4938     3743     3745 1
    4939      956      957 1
    4940     2041     2042 1
    4941      485      486 1
    4942     1089     1090 1
    4943     4701     4702 1
    4944     5095     5094 1
    4945      274      275 1
    4946     5738     5740 1
    4947     2831     2832 1
    4948     1385     1386 1
    4949     1113     1110 1
    4950     1243     1244 1
    4951     9386     9388 1
    4952     6065     6067 1
    4953     6017     6019 1
    4954    10391    10393 1
    4955     3489     3490 1
    4956        5        1 1
    4957      164      163 1
    4958     9263     9265 1
    4959     2020     2021 1
    4960     6842     6843 1
    4961     3411     3407 1
    4962     3996     3995 1
    4963     5193     5194 1
    4964      545      546 1
    4965     3453     3455 1
    4966      621      622 1
    4967     9638     9640 1
    4968     8261     8263 1
    4969    12419    12421 1
    4970    12257    12259 1
    4971     1403     1402 1
    4972     5804     5806 1
    4973    10340    10342 1
    4974     6725     6726 1
    4975     7724     7725 1
    4976     8642     8643 1
    4977    12476    12477 1
    4978     5645     5646 1
    4979     1254     1256 1
    4980    11558    11559 1
    4981     1365     1366 1
    4982    12314    12315 1
    4983     8105     8106 1
    4984     6434     6436 1
    4985     1387     1388 1
    4986     8210     8211 1
    4987     4940     4941 1
    4988      402      403 1
    4989      293      289 1
    4990      493      474 1
    4991     5091     5092 1
    4992     4229     4230 1
    4993     8822     8823 1
    4994     5528     5529 1
    4995     5408     5409 1
    4996      200      199 1
    4997     4017     4018 1
    4998     1985     1986 1
    4999     7730     7732 1
    5000     5651     5653 1
    5001     9485     9487 1
    5002    10565    10567 1
    5003     3499     3500 1
    5004     6731     6733 1
    5005    11564    11566 1
    5006     1165     1168 1
    5007     1003     1004 1
    5008    12320    12322 1
    5009     4610     4611 1
    5010      298      299 1
    5011     5447     5449 1
    5012     4484     4485 1
    5013     1529     1511 1
    5014     1908     1909 1
    5015     4003     4004 1
    5016     3202     3203 1
    5017     3838     3839 1
    5018     1535     1536 1
    5019     6341     6343 1
    5020     4133     4134 1
    5021     3447     3448 1
    5022    10202    10203 1
    5023     3191     3192 1
    5024    11945    11947 1
    5025     2200     2199 1
    5026     2478     2477 1
    5027     9656     9657 1
    5028     5822     5823 1
    5029    11843    11844 1
    5030     6092     6093 1
    5031    11573    11574 1
    5032     5930     5931 1
    5033     7847     7848 1
    5034     6191     6193 1
    5035      376      375 1
    5036     1927     1928 1
    5037     8369     8370 1
    5038     6452     6453 1
    5039    12527    12528 1
    5040    10286    10287 1
    5041     8531     8532 1
    5042      685      684 1
    5043     8207     8208 1
    5044    10448    10449 1
    5045     6290     6291 1
    5046     6128     6129 1
    5047      853      854 1
    5048     1046     1047 1
    5049     5414     5415 1
    5050    10523    10524 1
    5051     8444     8445 1
    5052    12278    12279 1
    5053     9362     9363 1
    5054    11441    11442 1
    5055     9524     9525 1
    5056     6689     6690 1
    5057     6845     6846 1
    5058     7607     7608 1
    5059     1051     1052 1
    5060     5220     5221 1
    5061     4795     4796 1
    5062     4575     4576 1
    5063     2129     2130 1
    5064      851      852 1
    5065     4527     4526 1
    5066      711      710 1
    5067     5117     5116 1
    5068    10034    10035 1
    5069      881      885 1
    5070    11672    11674 1
    5071     3075     3074 1
    5072     2855     2857 1
    5073    11435    11436 1
    5074     5684     5685 1
    5075     9275     9276 1
    5076     7439     7440 1
    5077     9518     9519 1
    5078    11516    11517 1
    5079    11354    11355 1
    5080    11075    11077 1
    5081     9599     9600 1
    5082     2901     2904 1
    5083     3971     3975 1
    5084     2741     2742 1
    5085     1768     1769 1
    5086     1826     1827 1
    5087      375      377 1
    5088     2869     2871 1
    5089     4035     4038 1
    5090     2761     2762 1
    5091      649      650 1
    5092     3413     3415 1
    5093    10862    10864 1
    5094     5747     5749 1
    5095      743      744 1
    5096     1050     1049 1
    5097     7859     7860 1
    5098     1381     1383 1
    5099     4467     4468 1
    5100     3367     3369 1
    5101     5112     5113 1
    5102    12875    12877 1
    5103     3597     3601 1
    5104    10553    10555 1
    5105     1052     1053 1
    5106     4796     4797 1
    5107     2710     2711 1
    5108     2786     2787 1
    5109     5735     5737 1
    5110     4851     4850 1
    5111      613      614 1
    5112     4820     4821 1
    5113     1280     1281 1
    5114     5046     5047 1
    5115      192      191 1
    5116     6386     6388 1
    5117     4175     4176 1
    5118     3886     3885 1
    5119     7649     7650 1
    5120     9566     9567 1
    5121    10484    10485 1
    5122    10646    10647 1
    5123     7487     7488 1
    5124     1221     1222 1
    5125       12       14 1
    5126     4506     4507 1
    5127     5229     5230 1
    5128    12401    12402 1
    5129     1347     1351 1
    5130     6710     6711 1
    5131     4745     4747 1
    5132     1565     1547 1
    5133     1411     1413 1
    5134     3524     3523 1
    5135     5987     5988 1
    5136     3361     3362 1
    5137     2636     2638 1
    5138     2802     2803 1
    5139     1689     1691 1
    5140    10766    10768 1
    5141    10604    10606 1
    5142     7850     7852 1
    5143    12845    12847 1
    5144    11846    11848 1
    5145     6095     6097 1
    5146     9011     9013 1
    5147     6932     6934 1
    5148     5933     5935 1
    5149    12683    12685 1
    5150     4428     4429 1
    5151     4272     4273 1
    5152     1309     1310 1
    5153     5073     5074 1
    5154     9242     9244 1
    5155    12743    12745 1
    5156     4915     4916 1
    5157    10112    10114 1
    5158     9950     9952 1
    5159     8195     8197 1
    5160     8033     8035 1
    5161    10031    10033 1
    5162    11948    11950 1
    5163    12110    12112 1
    5164     8114     8116 1
    5165     5477     5479 1
    5166     9869     9871 1
    5167     1062     1059 1
    5168     3787     3791 1
    5169     2085     2088 1
    5170     3252     3251 1
    5171      922      921 1
    5172    11039    11040 1
    5173     1795     1796 1
    5174     1728     1729 1
    5175     1257     1259 1
    5176     1105     1106 1
    5177    10514    10516 1
    5178     3618     3619 1
    5179      467      471 1
    5180     6716     6717 1
    5181     3851     3852 1
    5182     9572     9573 1
    5183     3941     3942 1
    5184     3505     3507 1
    5185     7535     7537 1
    5186     1243     1246 1
    5187     3919     3921 1
    5188       75       74 1
    5189     2456     2455 1
    5190      189      185 1
    5191     3075     3076 1
    5192     2563     2564 1
    5193     9113     9114 1
    5194      910      911 1
    5195      933      937 1
    5196     1135     1136 1
    5197      190      193 1
    5198      721      722 1
    5199     1398     1399 1
    5200     5396     5397 1
    5201      797      798 1
    5202     1227     1228 1
    5203      905      908 1
    5204     2671     2672 1
    5205     4288     4289 1
    5206     8495     8497 1
    5207     9569     9571 1
    5208     7652     7654 1
    5209     8030     8032 1
    5210    11486    11488 1
    5211     8381     8383 1
    5212     8597     8599 1
    5213     9947     9949 1
    5214     6140     6142 1
    5215     5125     5107 1
    5216     8192     8194 1
    5217     4748     4749 1
    5218     2334     2333 1
    5219     7208     7209 1
    5220    12305    12307 1
    5221     7889     7891 1
    5222     3816     3817 1
    5223      681      682 1
    5224     4695     4696 1
    5225     4160     4159 1
    5226     9530     9532 1
    5227     2524     2525 1
    5228     1662     1663 1
    5229     2151     2152 1
    5230      605      606 1
    5231     3053     3055 1
    5232     3430     3431 1
    5233     3323     3321 1
    5234     3715     3713 1
    5235     1392     1394 1
    5236      564      566 1
    5237     5173     5174 1
    5238     4244     4245 1
    5239       80       77 1
    5240     9476     9477 1
    5241    10349    10351 1
    5242     9122     9124 1
    5243     5019     5020 1
    5244      820      821 1
    5245     2660     2659 1
    5246     5771     5772 1
    5247     4618     4619 1
    5248     1002     1003 1
    5249     1078     1079 1
    5250      809      810 1
    5251     4184     4185 1
    5252     4829     4830 1
    5253    10898    10900 1
    5254     3779     3775 1
    5255     4520     4521 1
    5256     5315     5316 1
    5257     3366     3365 1
    5258     5048     5049 1
    5259    10379    10380 1
    5260    10550    10552 1
    5261     1833     1834 1
    5262     8633     8635 1
    5263    12134    12135 1
    5264     9029     9030 1
    5265    12863    12864 1
    5266     3661     3662 1
    5267    12467    12469 1
    5268    12386    12388 1
    5269     6716     6718 1
    5270     3622     3621 1
    5271    11729    11731 1
    5272     6683     6684 1
    5273     6353     6355 1
    5274     5240     5241 1
    5275     4589     4590 1
    5276    10268    10270 1
    5277    12185    12187 1
    5278     4803     4804 1
    5279     4595     4596 1
    5280     6272     6274 1
    5281     4161     4162 1
    5282      894      895 1
    5283      836      840 1
    5284     3541     3540 1
    5285     5255     5257 1
    5286      789      793 1
    5287     2125     2126 1
    5288     1538     1539 1
    5289     2183     2184 1
    5290    10247    10249 1
    5291     2102     2103 1
    5292    11786    11788 1
    5293     7952     7954 1
    5294     5453     5455 1
    5295     7790     7792 1
    5296     8492     8494 1
    5297     6035     6037 1
    5298     9833     9835 1
    5299     5999     6001 1
    5300     7997     7999 1
    5301     9914     9916 1
    5302     9752     9754 1
    5303     7754     7756 1
    5304     7835     7837 1
    5305     8078     8080 1
    5306    11750    11752 1
    5307     5756     5758 1
    5308     1653     1654 1
    5309     8624     8626 1
    5310     2583     2584 1
    5311      412      413 1
    5312     3442     3441 1
    5313     8318     8319 1
    5314     9398     9399 1
    5315     1948     1949 1
    5316     2593     2594 1
    5317     3355     3356 1
    5318     3357     3358 1
    5319      656      658 1
    5320      302      303 1
    5321    10757    10759 1
    5322     3428     3427 1
    5323     4119     4120 1
    5324     4122     4123 1
    5325     1550     1551 1
    5326     1605     1606 1
    5327      246      245 1
    5328     2915     2916 1
    5329     1722     1723 1
    5330     2367     2368 1
    5331     2095     2096 1
    5332     2931     2934 1
    5333     1327     1328 1
    5334     4839     4840 1
    5335     3884     3885 1
    5336     5957     5958 1
    5337     5318     5319 1
    5338     2233     2232 1
    5339     7298     7299 1
    5340     3579     3580 1
    5341      494      495 1
    5342     5064     5065 1
    5343     3840     3841 1
    5344      436      437 1
    5345     1077     1078 1
    5346     4400     4401 1
    5347     1642     1643 1
    5348     4825     4826 1
    5349     5097     5098 1
    5350     3719     3720 1
    5351     8264     8266 1
    5352     8912     8913 1
    5353     1178     1179 1
    5354     1444     1445 1
    5355    10181    10183 1
    5356     3623     3621 1
    5357     4396     4397 1
    5358      646      645 1
    5359     1790     1791 1
    5360     2163     2164 1
    5361     1518     1519 1
    5362      697      699 1
    5363     2514     2515 1
    5364     3873     3877 1
    5365     1837     1838 1
    5366     1898     1899 1
    5367     3203     3204 1
    5368     2843     2844 1
    5369     3769     3770 1
    5370     3347     3345 1
    5371      605      609 1
    5372     4349     4351 1
    5373      767      769 1
    5374    11183    11184 1
    5375     1737     1738 1
    5376    11264    11265 1
    5377     7106     7107 1
    5378     7349     7350 1
    5379     9104     9105 1
    5380     9347     9348 1
    5381     7268     7269 1
    5382     9185     9186 1
    5383     7511     7512 1
    5384     1295     1297 1
    5385     3931     3930 1
    5386     9677     9679 1
    5387     6653     6655 1
    5388     3759     3762 1
    5389    12089    12090 1
    5390     5477     5478 1
    5391     5291     5293 1
    5392     4583     4582 1
    5393      933      934 1
    5394     2723     2726 1
    5395     2701     2704 1
    5396     2282     2283 1
    5397     2105     2087 1
    5398     2783     2784 1
    5399     5642     5644 1
    5400     7721     7723 1
    5401    10016    10018 1
    5402    11933    11935 1
    5403     7883     7885 1
    5404     6182     6184 1
    5405     2677     2680 1
    5406     7211     7212 1
    5407    12167    12169 1
    5408     8252     8254 1
    5409     6335     6337 1
    5410     8372     8373 1
    5411    12410    12412 1
    5412     3117     3098 1
    5413      375      379 1
    5414    12248    12250 1
    5415    10250    10252 1
    5416     6254     6256 1
    5417    11975    11977 1
    5418     2467     2466 1
    5419     9188     9189 1
    5420     7352     7353 1
    5421     7271     7272 1
    5422     9350     9351 1
    5423     7109     7110 1
    5424    11186    11187 1
    5425     7514     7515 1
    5426     9107     9108 1
    5427     4199     4200 1
    5428      735      734 1
    5429     4569     4570 1
    5430     3929     3925 1
    5431      435      434 1
    5432     2504     2505 1
    5433     2513     2514 1
    5434     3335     3336 1
    5435     4002     4003 1
    5436     3291     3292 1
    5437     3221     3222 1
    5438     2465     2447 1
    5439     3926     3924 1
    5440     5085     5086 1
    5441     5082     5083 1
    5442     1494     1495 1
    5443     1725     1726 1
    5444      266      265 1
    5445     3546     3545 1
    5446     1969     1970 1
    5447     2342     2343 1
    5448     2614     2615 1
    5449     1752     1753 1
    5450     1697     1698 1
    5451     5942     5944 1
    5452     2313     2314 1
    5453     1381     1384 1
    5454    10454    10456 1
    5455    12533    12535 1
    5456    10292    10294 1
    5457    10346    10348 1
    5458    12425    12427 1
    5459    12263    12265 1
    5460    10184    10186 1
    5461      973      974 1
    5462     6458     6460 1
    5463     8537     8539 1
    5464     9062     9064 1
    5465     3572     3573 1
    5466     3978     3977 1
    5467    10208    10210 1
    5468     3519     3518 1
    5469     3164     3161 1
    5470     3060     3061 1
    5471     3412     3415 1
    5472     1903     1904 1
    5473     2117     2118 1
    5474     3067     3068 1
    5475     5486     5487 1
    5476     2947     2950 1
    5477     2958     2960 1
    5478     8282     8283 1
    5479    10361    10362 1
    5480    11279    11280 1
    5481     2983     2984 1
    5482     3059     3060 1
    5483     7445     7446 1
    5484     6527     6528 1
    5485     2800     2801 1
    5486     7283     7284 1
    5487    12116    12117 1
    5488     1915     1916 1
    5489      559      562 1
    5490     1426     1425 1
    5491     4245     4246 1
    5492     5108     5109 1
    5493      717      718 1
    5494     4307     4308 1
    5495     4952     4953 1
    5496     5018     5019 1
    5497      550      551 1
    5498      892      893 1
    5499      641      642 1
    5500     3764     3765 1
    5501     1431     1432 1
    5502    11597    11598 1
    5503     9884     9886 1
    5504     7805     7807 1
    5505     5888     5890 1
    5506     9680     9681 1
    5507     6050     6052 1
    5508     6806     6808 1
    5509     6968     6970 1
    5510     7682     7683 1
    5511    12557    12559 1
    5512    12719    12721 1
    5513     3943     3944 1
    5514     7049     7051 1
    5515      650      653 1
    5516     2736     2737 1
    5517     3665     3666 1
    5518      800      797 1
    5519    11189    11191 1
    5520     9191     9193 1
    5521     7355     7357 1
    5522     7112     7114 1
    5523     9353     9355 1
    5524     9110     9112 1
    5525     7517     7519 1
    5526     7274     7276 1
    5527    11270    11272 1
    5528    11108    11110 1
    5529     4821     4822 1
    5530     4091     4092 1
    5531     2966     2967 1
    5532      210      209 1
    5533     3480     3479 1
    5534     4817     4819 1
    5535     6941     6943 1
    5536     1717     1718 1
    5537     1811     1812 1
    5538     2288     2289 1
    5539     2083     2084 1
    5540     4637     4638 1
    5541    10625    10627 1
    5542     8507     8508 1
    5543     4960     4944 1
    5544    11654    11655 1
    5545    11885    11886 1
    5546     9968     9969 1
    5547     8753     8754 1
    5548    12047    12048 1
    5549     8051     8052 1
    5550     6512     6513 1
    5551     3828     3832 1
    5552     7772     7774 1
    5553     9806     9807 1
    5554     3343     3344 1
    5555     2913     2914 1
    5556     2736     2735 1
    5557       99      103 1
    5558      229      228 1
    5559     9695     9697 1
    5560     9116     9118 1
    5561    10157    10158 1
    5562     1467     1468 1
    5563     7952     7953 1
    5564     6638     6640 1
    5565     8570     8571 1
    5566      648      645 1
    5567     4542     4543 1
    5568     4814     4815 1
    5569     2991     2992 1
    5570     6842     6844 1
    5571    10424    10425 1
    5572     8615     8616 1
    5573     9575     9577 1
    5574     6860     6861 1
    5575     8696     8697 1
    5576    10586    10587 1
    5577     5687     5689 1
    5578     3081     3082 1
    5579     6779     6780 1
    5580    12341    12342 1
    5581    11492    11494 1
    5582     1119     1121 1
    5583    10115    10117 1
    5584     8153     8155 1
    5585     2012     1996 1
    5586     6074     6076 1
    5587      705      706 1
    5588     4097     4098 1
    5589     2048     2032 1
    5590      620      621 1
    5591     9146     9148 1
    5592     3158     3159 1
    5593     2801     2802 1
    5594     7328     7329 1
    5595    11243    11244 1
    5596     7409     7410 1
    5597     7166     7167 1
    5598    11000    11001 1
    5599     9164     9165 1
    5600     9407     9408 1
    5601     3228     3231 1
    5602     7853     7854 1
    5603     5993     5994 1
    5604    12671    12673 1
    5605     7082     7084 1
    5606     6596     6598 1
    5607     8837     8839 1
    5608     8432     8434 1
    5609    12914    12916 1
    5610     8351     8353 1
    5611    10673    10675 1
    5612    12509    12511 1
    5613    10592    10594 1
    5614     1339     1340 1
    5615     3695     3699 1
    5616     6422     6423 1
    5617     4011     4014 1
    5618      751      753 1
    5619     3413     3417 1
    5620     3314     3313 1
    5621     7379     7381 1
    5622     9050     9052 1
    5623    10805    10807 1
    5624     7133     7135 1
    5625     8888     8890 1
    5626    10886    10888 1
    5627     8969     8971 1
    5628     7052     7054 1
    5629     1476     1477 1
    5630     2913     2917 1
    5631      585      583 1
    5632      336      355 1
    5633      336      335 1
    5634     1294     1297 1
    5635       70       71 1
    5636    12518    12519 1
    5637     2193     2194 1
    5638    10520    10521 1
    5639    12275    12276 1
    5640     2036     2037 1
    5641     6443     6444 1
    5642     8981     8982 1
    5643     6902     6903 1
    5644    12815    12816 1
    5645     9062     9063 1
    5646     3759     3760 1
    5647      323      326 1
    5648     4852     4836 1
    5649     3330     3329 1
    5650     3605     3606 1
    5651    11078    11079 1
    5652    12473    12474 1
    5653    12554    12555 1
    5654     8801     8802 1
    5655     6965     6966 1
    5656     6803     6804 1
    5657    12797    12798 1
    5658    10718    10719 1
    5659     6884     6885 1
    5660    12635    12636 1
    5661    12716    12717 1
    5662     8720     8721 1
    5663      351      350 1
    5664     2334     2335 1
    5665     7037     7038 1
    5666     9143     9144 1
    5667     8042     8043 1
    5668     1811     1810 1
    5669     3326     3322 1
    5670     2784     2785 1
    5671     2821     2822 1
    5672     3814     3813 1
    5673     4515     4516 1
    5674     4729     4730 1
    5675      986      987 1
    5676      913      914 1
    5677      989      990 1
    5678     5163     5164 1
    5679     4460     4461 1
    5680     8177     8178 1
    5681    10094    10095 1
    5682     8015     8016 1
    5683    11930    11931 1
    5684    10013    10014 1
    5685     8096     8097 1
    5686     9851     9852 1
    5687     6179     6180 1
    5688     9932     9933 1
    5689    12092    12093 1
    5690     4205     4206 1
    5691     1071     1072 1
    5692     2570     2571 1
    5693     5156     5157 1
    5694     1169     1170 1
    5695     1946     1947 1
    5696     1732     1733 1
    5697     2432     2433 1
    5698     2377     2378 1
    5699     1787     1788 1
    5700     2775     2776 1
    5701     2435     2436 1
    5702     2549     2550 1
    5703     2277     2278 1
    5704     1883     1884 1
    5705      223      224 1
    5706     3359     3360 1
    5707    12323    12324 1
    5708     3671     3672 1
    5709      211      212 1
    5710     3665     3664 1
    5711     3515     3513 1
    5712     2907     2910 1
    5713     5417     5418 1
    5714     9443     9445 1
    5715     5672     5674 1
    5716     1195     1196 1
    5717     1809     1810 1
    5718     3528     3527 1
    5719     3709     3710 1
    5720     6398     6400 1
    5721     8234     8236 1
    5722     8315     8317 1
    5723    12149    12151 1
    5724     2345     2344 1
    5725     6317     6319 1
    5726      513      516 1
    5727    10073    10074 1
    5728    11828    11829 1
    5729    11990    11991 1
    5730     9371     9372 1
    5731     3184     3188 1
    5732     9533     9534 1
    5733    11450    11451 1
    5734     7616     7617 1
    5735     1941     1942 1
    5736     5209     5210 1
    5737     8426     8427 1
    5738     2011     2012 1
    5739     4731     4732 1
    5740     1516     1517 1
    5741     4752     4753 1
    5742     4535     4536 1
    5743     4180     4181 1
    5744     4608     4609 1
    5745     9485     9486 1
    5746     3485     3483 1
    5747    11036    11038 1
    5748     9200     9202 1
    5749    10955    10957 1
    5750    12872    12874 1
    5751     6896     6897 1
    5752     9119     9121 1
    5753    11117    11119 1
    5754     7202     7204 1
    5755     4696     4697 1
    5756      957      958 1
    5757      764      765 1
    5758     1537     1538 1
    5759     1039     1040 1
    5760     2136     2137 1
    5761     2561     2562 1
    5762     3091     3092 1
    5763     3097     3098 1
    5764     4706     4707 1
    5765      481      482 1
    5766      680      681 1
    5767     4480     4481 1
    5768     3373     3377 1
    5769     1678     1677 1
    5770     9470     9472 1
    5771      763      764 1
    5772      167      166 1
    5773     8006     8008 1
    5774     9923     9925 1
    5775     7844     7846 1
    5776     4450     4449 1
    5777     5927     5929 1
    5778     5765     5767 1
    5779     5285     5287 1
    5780     9761     9763 1
    5781     2810     2809 1
    5782     3839     3840 1
    5783    12476    12478 1
    5784    10166    10167 1
    5785      691      693 1
    5786     1198     1197 1
    5787     3569     3570 1
    5788     9731     9732 1
    5789     2281     2282 1
    5790     7490     7492 1
    5791        7       11 1
    5792      841      842 1
    5793     6656     6657 1
    5794     2939     2940 1
    5795     2901     2905 1
    5796     2953     2956 1
    5797     7424     7425 1
    5798     9422     9423 1
    5799     1761     1762 1
    5800    11501    11502 1
    5801    11339    11340 1
    5802     9260     9261 1
    5803     9584     9585 1
    5804     5669     5670 1
    5805     9503     9504 1
    5806    11420    11421 1
    5807     1617     1619 1
    5808     7901     7903 1
    5809      145      148 1
    5810     2178     2179 1
    5811      909      910 1
    5812     1468     1469 1
    5813     4688     4689 1
    5814     4297     4298 1
    5815      714      715 1
    5816      638      639 1
    5817      719      720 1
    5818     3998     3997 1
    5819     3195     3196 1
    5820     4169     4170 1
    5821    11855    11857 1
    5822     6104     6106 1
    5823     4140     4141 1
    5824     7859     7861 1
    5825      263      261 1
    5826     6482     6484 1
    5827    10316    10318 1
    5828      570      571 1
    5829     8399     8401 1
    5830    12617    12619 1
    5831    12233    12235 1
    5832     3281     3282 1
    5833     4551     4552 1
    5834     2347     2348 1
    5835     1702     1703 1
    5836      597      598 1
    5837     1540     1541 1
    5838     3815     3816 1
    5839     4644     4645 1
    5840      109      107 1
    5841    10025    10026 1
    5842     3173     3174 1
    5843     9344     9346 1
    5844     3039     3043 1
    5845     4640     4641 1
    5846      191      195 1
    5847     7208     7210 1
    5848    11315    11317 1
    5849     1814     1815 1
    5850     1640     1641 1
    5851     2285     2286 1
    5852     6185     6187 1
    5853     3842     3843 1
    5854     1275     1256 1
    5855     2793     2794 1
    5856     5267     5269 1
    5857     1627     1628 1
    5858     7883     7884 1
    5859     3777     3775 1
    5860     9476     9478 1
    5861     5056     5057 1
    5862     4976     4977 1
    5863     4383     4384 1
    5864     2703     2684 1
    5865      106      105 1
    5866     3411     3412 1
    5867      803      804 1
    5868     5089     5071 1
    5869     2629     2630 1
    5870      348      349 1
    5871     5058     5059 1
    5872     4798     4799 1
    5873     4844     4845 1
    5874     1073     1074 1
    5875      855      856 1
    5876     4147     4148 1
    5877     1048     1049 1
    5878     4341     4342 1
    5879      997      998 1
    5880     5012     5013 1
    5881    11969    11971 1
    5882     4925     4926 1
    5883     7040     7042 1
    5884      461      464 1
    5885     2024     2025 1
    5886     2959     2960 1
    5887    10946    10947 1
    5888     7418     7420 1
    5889     8948     8949 1
    5890     9578     9580 1
    5891     3381     3380 1
    5892    11495    11497 1
    5893     7220     7221 1
    5894    10973    10974 1
    5895     9218     9219 1
    5896    12890    12891 1
    5897    11333    11335 1
    5898      875      877 1
    5899     4485     4486 1
    5900     5750     5751 1
    5901     7973     7975 1
    5902     8135     8137 1
    5903    10214    10216 1
    5904    11132    11134 1
    5905    10052    10054 1
    5906    10970    10972 1
    5907     9215     9217 1
    5908     6380     6382 1
    5909     1878     1877 1
    5910    12887    12889 1
    5911     8429     8430 1
    5912     5972     5973 1
    5913     4053     4051 1
    5914     5399     5401 1
    5915    12329    12330 1
    5916     4065     4067 1
    5917     9464     9466 1
    5918    11381    11383 1
    5919    10463    10465 1
    5920    10301    10303 1
    5921     7709     7711 1
    5922    12542    12544 1
    5923     6467     6469 1
    5924       85       86 1
    5925     3763     3764 1
    5926     7547     7549 1
    5927    10013    10015 1
    5928    10094    10096 1
    5929     8015     8017 1
    5930     3690     3694 1
    5931     9851     9853 1
    5932    11930    11932 1
    5933     8096     8098 1
    5934     6179     6181 1
    5935     1523     1524 1
    5936     1957     1958 1
    5937      309      290 1
    5938     3855     3854 1
    5939     1770     1771 1
    5940     2318     2319 1
    5941     2646     2647 1
    5942     2101     2102 1
    5943     2141     2142 1
    5944     1645     1644 1
    5945     4959     4960 1
    5946     2587     2588 1
    5947     2652     2653 1
    5948     2246     2247 1
    5949      440      439 1
    5950     4845     4846 1
    5951     5001     5002 1
    5952     2487     2488 1
    5953     4787     4788 1
    5954     3821     3823 1
    5955     7913     7915 1
    5956     2560     2561 1
    5957     1257     1260 1
    5958     3137     3140 1
    5959     1947     1948 1
    5960     2592     2593 1
    5961     1953     1954 1
    5962     2381     2382 1
    5963     3025     3006 1
    5964     6044     6045 1
    5965     6962     6963 1
    5966     7799     7800 1
    5967     8717     8718 1
    5968     6800     6801 1
    5969     9878     9879 1
    5970    12713    12714 1
    5971    12551    12552 1
    5972     5882     5883 1
    5973     5420     5421 1
    5974     4791     4792 1
    5975      778      779 1
    5976     7643     7645 1
    5977    11477    11479 1
    5978    10640    10642 1
    5979     9560     9562 1
    5980    10478    10480 1
    5981    12395    12397 1
    5982     9722     9724 1
    5983     7481     7483 1
    5984     3515     3511 1
    5985     2769     2771 1
    5986     1066     1070 1
    5987     3608     3605 1
    5988     3850     3849 1
    5989     1278     1279 1
    5990      725      726 1
    5991     5093     5094 1
    5992     4448     4449 1
    5993     3039     3041 1
    5994     2793     2795 1
    5995     2386     2387 1
    5996     1741     1742 1
    5997     2022     2023 1
    5998     1637     1638 1
    5999     1594     1595 1
    6000     1866     1867 1
    6001     2294     2295 1
    6002     2071     2072 1
    6003     1649     1650 1
    6004     2239     2240 1
    6005     5140     5124 1
    6006     6674     6675 1
    6007     1734     1735 1
    6008     8375     8376 1
    6009    12587    12588 1
    6010     6296     6297 1
    6011     8213     8214 1
    6012     8591     8592 1
    6013     2006     2007 1
    6014     6134     6135 1
    6015     5711     5712 1
    6016     6344     6346 1
    6017     5104     5088 1
    6018     5780     5782 1
    6019     3585     3584 1
    6020     8807     8808 1
    6021     4895     4896 1
    6022     5579     5581 1
    6023     7928     7930 1
    6024     7658     7660 1
    6025    11762    11764 1
    6026      727      728 1
    6027     6011     6013 1
    6028     4664     4665 1
    6029     3329     3332 1
    6030     7766     7768 1
    6031    11654    11656 1
    6032     8378     8379 1
    6033     7217     7218 1
    6034     3960     3959 1
    6035    11051    11052 1
    6036     8216     8217 1
    6037     5200     5201 1
    6038     4555     4556 1
    6039     9134     9135 1
    6040     6299     6300 1
    6041     6137     6138 1
    6042      283      286 1
    6043     3551     3553 1
    6044     3466     3465 1
    6045      372      369 1
    6046     9740     9741 1
    6047     3721     3722 1
    6048     3993     3994 1
    6049     3794     3795 1
    6050     7526     7528 1
    6051     6446     6448 1
    6052     7688     7690 1
    6053    11360    11362 1
    6054    12836    12837 1
    6055    12521    12523 1
    6056     1201     1202 1
    6057     8525     8527 1
    6058    10280    10282 1
    6059    10442    10444 1
    6060     4722     4723 1
    6061     8474     8475 1
    6062     4027     4028 1
    6063     3749     3750 1
    6064     3957     3958 1
    6065     2832     2833 1
    6066     4081     4082 1
    6067    11768    11769 1
    6068     4483     4484 1
    6069     5076     5077 1
    6070     4275     4276 1
    6071     3441     3440 1
    6072     4431     4432 1
    6073     5128     5129 1
    6074     1312     1313 1
    6075     8810     8812 1
    6076     4703     4704 1
    6077     6830     6832 1
    6078     3729     3730 1
    6079    10010    10012 1
    6080     1989     1990 1
    6081      959      960 1
    6082     2221     2220 1
    6083     2918     2919 1
    6084    10286    10288 1
    6085    12353    12355 1
    6086     6521     6523 1
    6087     5040     5039 1
    6088     8357     8359 1
    6089    10598    10600 1
    6090    10436    10438 1
    6091     5459     5461 1
    6092     2815     2817 1
    6093     7214     7216 1
    6094    12884    12886 1
    6095    10967    10969 1
    6096    11129    11131 1
    6097     9212     9214 1
    6098     2639     2642 1
    6099     9131     9133 1
    6100       47       51 1
    6101    11048    11050 1
    6102     3679     3678 1
    6103     1709     1710 1
    6104      328      327 1
    6105     3043     3044 1
    6106    12635    12637 1
    6107    11924    11925 1
    6108     8009     8010 1
    6109    10007    10008 1
    6110     9845     9846 1
    6111     8090     8091 1
    6112     8171     8172 1
    6113     6173     6174 1
    6114    10088    10089 1
    6115     9926     9927 1
    6116    12086    12087 1
    6117    11018    11019 1
    6118    12854    12855 1
    6119     1470     1471 1
    6120     4299     4300 1
    6121     1389     1386 1
    6122     2706     2707 1
    6123    12392    12393 1
    6124     6722     6723 1
    6125    10556    10557 1
    6126    10637    10638 1
    6127    10475    10476 1
    6128      988      987 1
    6129      523      519 1
    6130    12311    12312 1
    6131     8639     8640 1
    6132      118      117 1
    6133     4197     4198 1
    6134     2894     2895 1
    6135    10070    10072 1
    6136    10889    10890 1
    6137     3982     3983 1
    6138     2622     2621 1
    6139     2999     3002 1
    6140     9425     9426 1
    6141     1100     1099 1
    6142      541      542 1
    6143     1100     1101 1
    6144     4590     4591 1
    6145     4532     4533 1
    6146      617      618 1
    6147     4544     4545 1
    6148     3198     3199 1
    6149    10532    10533 1
    6150      117      116 1
    6151     1321     1302 1
    6152     6170     6171 1
    6153     4409     4410 1
    6154     1056     1057 1
    6155    11921    11922 1
    6156     9653     9654 1
    6157    10004    10005 1
    6158      497      498 1
    6159      573      574 1
    6160     5462     5464 1
    6161      772      773 1
    6162       14       33 1
    6163     5249     5251 1
    6164     3608     3609 1
    6165     4699     4700 1
    6166     6524     6525 1
    6167     6437     6439 1
    6168     6599     6601 1
    6169     6221     6223 1
    6170     8354     8356 1
    6171    10595    10597 1
    6172    10433    10435 1
    6173    11648    11650 1
    6174    11810    11812 1
    6175      900      901 1
    6176     5243     5244 1
    6177     4167     4168 1
    6178     1395     1398 1
    6179     4323     4324 1
    6180      131      132 1
    6181     3565     3564 1
    6182     2775     2779 1
    6183     2890     2891 1
    6184     4085     4086 1
    6185     4267     4268 1
    6186     1665     1666 1
    6187     3372     3368 1
    6188     2148     2149 1
    6189     1925     1926 1
    6190     6953     6955 1
    6191      448      445 1
    6192     1718     1719 1
    6193     1660     1661 1
    6194     1073     1075 1
    6195      997      999 1
    6196     1831     1832 1
    6197     4031     4032 1
    6198      406      405 1
    6199     3026     3027 1
    6200     2275     2276 1
    6201     1630     1631 1
    6202     3269     3272 1
    6203      284      283 1
    6204      513      517 1
    6205    12482    12484 1
    6206    11273    11275 1
    6207     2813     2814 1
    6208     3883     3879 1
    6209     4594     4595 1
    6210     5239     5240 1
    6211     5184     5185 1
    6212       68       67 1
    6213     8477     8479 1
    6214     8396     8398 1
    6215    10232    10234 1
    6216    10313    10315 1
    6217     6479     6481 1
    6218     8558     8560 1
    6219    10394    10396 1
    6220     5753     5754 1
    6221     9911     9912 1
    6222     9749     9750 1
    6223     7832     7833 1
    6224    11288    11289 1
    6225     7454     7455 1
    6226     2511     2510 1
    6227     5915     5916 1
    6228     7994     7995 1
    6229     7292     7293 1
    6230      905      906 1
    6231      267      268 1
    6232    10331    10333 1
    6233     1365     1367 1
    6234     5732     5733 1
    6235      277      280 1
    6236      135      134 1
    6237     4599     4600 1
    6238      371      369 1
    6239     2855     2858 1
    6240    10982    10984 1
    6241     1395     1397 1
    6242     8543     8544 1
    6243    12431    12432 1
    6244    10298    10299 1
    6245     8273     8274 1
    6246    12539    12540 1
    6247     6464     6465 1
    6248    12269    12270 1
    6249    10190    10191 1
    6250    10352    10353 1
    6251    10460    10461 1
    6252     1991     1992 1
    6253     2208     2209 1
    6254     2196     2197 1
    6255     1232     1233 1
    6256      588      589 1
    6257     8393     8394 1
    6258     4913     4914 1
    6259     4496     4497 1
    6260     4222     4223 1
    6261     1765     1766 1
    6262    11720    11722 1
    6263     8471     8473 1
    6264     9701     9703 1
    6265     6245     6247 1
    6266     6083     6085 1
    6267    12158    12160 1
    6268     5867     5869 1
    6269    11618    11620 1
    6270     5273     5274 1
    6271     5705     5707 1
    6272     8324     8326 1
    6273     8162     8164 1
    6274     4281     4282 1
    6275     3123     3124 1
    6276     5531     5533 1
    6277     8258     8260 1
    6278     4038     4039 1
    6279     6962     6964 1
    6280     7799     7801 1
    6281     6044     6046 1
    6282     9878     9880 1
    6283     8717     8719 1
    6284    12551    12553 1
    6285     6800     6802 1
    6286    12713    12715 1
    6287     5882     5884 1
    6288    12362    12364 1
    6289     7733     7734 1
    6290     7592     7594 1
    6291    11096    11098 1
    6292     3135     3136 1
    6293     2424     2425 1
    6294     3191     3193 1
    6295     3607     3603 1
    6296     2523     2524 1
    6297     2526     2527 1
    6298     2150     2151 1
    6299     1661     1662 1
    6300     2153     2154 1
    6301     1881     1882 1
    6302     3499     3502 1
    6303     6080     6081 1
    6304     3262     3263 1
    6305     9989     9990 1
    6306     5831     5832 1
    6307     9665     9666 1
    6308     7667     7668 1
    6309    11582    11583 1
    6310    11825    11826 1
    6311    11906    11907 1
    6312     6155     6156 1
    6313     5588     5589 1
    6314    10070    10071 1
    6315     4139     4140 1
    6316     2328     2329 1
    6317     5324     5326 1
    6318      875      878 1
    6319     5798     5799 1
    6320     9632     9633 1
    6321    12413    12414 1
    6322     3261     3262 1
    6323    12251    12252 1
    6324    10334    10335 1
    6325    10172    10173 1
    6326    11711    11712 1
    6327     8255     8256 1
    6328      250      249 1
    6329    10193    10194 1
    6330       70       69 1
    6331     5175     5176 1
    6332     1463     1464 1
    6333     4903     4904 1
    6334     3125     3126 1
    6335    10310    10311 1
    6336     6476     6477 1
    6337     7988     7989 1
    6338     5936     5937 1
    6339     9743     9744 1
    6340     9905     9906 1
    6341     3743     3746 1
    6342     6098     6099 1
    6343     7826     7827 1
    6344     7448     7449 1
    6345    10853    10855 1
    6346     1689     1690 1
    6347    11246    11247 1
    6348     7331     7332 1
    6349     9410     9411 1
    6350     7412     7413 1
    6351    12461    12462 1
    6352     6872     6873 1
    6353     6791     6792 1
    6354     8870     8871 1
    6355     8708     8709 1
    6356     1331     1332 1
    6357      511      507 1
    6358      866      867 1
    6359     4982     4983 1
    6360      171      169 1
    6361     2106     2107 1
    6362     6410     6411 1
    6363     1725     1728 1
    6364       14       13 1
    6365     1578     1579 1
    6366     6581     6583 1
    6367     3387     3388 1
    6368      135      136 1
    6369    12323    12325 1
    6370     4639     4637 1
    6371     5177     5180 1
    6372     9815     9817 1
    6373     3705     3706 1
    6374     3066     3067 1
    6375     5924     5925 1
    6376     5330     5331 1
    6377     2059     2060 1
    6378     2105     2106 1
    6379     9962     9964 1
    6380    12041    12043 1
    6381    11879    11881 1
    6382     9800     9802 1
    6383     8045     8047 1
    6384     5966     5968 1
    6385     1286     1287 1
    6386     4181     4182 1
    6387     4609     4610 1
    6388     4881     4882 1
    6389    12239    12240 1
    6390     5786     5787 1
    6391    11537    11538 1
    6392     9620     9621 1
    6393     9782     9783 1
    6394     1332     1333 1
    6395     1423     1424 1
    6396    12077    12078 1
    6397     8243     8244 1
    6398    12881    12882 1
    6399     3039     3040 1
    6400      613      615 1
    6401     3872     3871 1
    6402     1043     1046 1
    6403     3624     3625 1
    6404      705      708 1
    6405     2403     2404 1
    6406     3548     3545 1
    6407      527      528 1
    6408     4663     4664 1
    6409     9173     9175 1
    6410     3588     3587 1
    6411     4765     4747 1
    6412     1204     1208 1
    6413     2971     2972 1
    6414     6191     6192 1
    6415     6896     6898 1
    6416     8168     8170 1
    6417     3037     3038 1
    6418     3746     3747 1
    6419     3778     3775 1
    6420      958      959 1
    6421      765      766 1
    6422     1031     1032 1
    6423     5137     5138 1
    6424     1340     1343 1
    6425     4654     4655 1
    6426     1986     1987 1
    6427     2316     2317 1
    6428     8573     8575 1
    6429      657      658 1
    6430     3529     3530 1
    6431     5267     5268 1
    6432     6740     6741 1
    6433     8219     8220 1
    6434     2013     2016 1
    6435    12602    12604 1
    6436     5690     5692 1
    6437     9731     9733 1
    6438     2861     2862 1
    6439     6860     6862 1
    6440     3069     3072 1
    6441     8693     8694 1
    6442    11528    11529 1
    6443      139      142 1
    6444     5777     5778 1
    6445     9611     9612 1
    6446     6776     6777 1
    6447    11690    11691 1
    6448     3522     3521 1
    6449     9773     9774 1
    6450     8855     8856 1
    6451      161      160 1
    6452    11663    11664 1
    6453     2056     2057 1
    6454     2111     2112 1
    6455     2053     2054 1
    6456    10133    10134 1
    6457     4037     4018 1
    6458     2722     2725 1
    6459     2070     2071 1
    6460      779      780 1
    6461     1167     1163 1
    6462     3729     3731 1
    6463      623      622 1
    6464     4252     4253 1
    6465     4897     4898 1
    6466     1191     1192 1
    6467    10754    10756 1
    6468     4540     4541 1
    6469     2844     2845 1
    6470      109      105 1
    6471     5492     5493 1
    6472     4146     4147 1
    6473     5222     5223 1
    6474     6374     6376 1
    6475     8129     8131 1
    6476     9209     9211 1
    6477      854      855 1
    6478     7967     7969 1
    6479     7163     7165 1
    6480    12881    12883 1
    6481    10964    10966 1
    6482    11723    11725 1
    6483     1473     1474 1
    6484     8237     8239 1
    6485     1123     1124 1
    6486     5456     5458 1
    6487    11057    11058 1
    6488     2578     2577 1
    6489     4885     4886 1
    6490     4873     4874 1
    6491     9125     9126 1
    6492     2429     2411 1
    6493      605      608 1
    6494     6548     6549 1
    6495     9857     9859 1
    6496     8816     8817 1
    6497    12209    12210 1
    6498    10130    10131 1
    6499    12371    12372 1
    6500    11054    11055 1
    6501     3563     3564 1
    6502     2717     2719 1
    6503      154      153 1
    6504     3707     3706 1
    6505     3618     3617 1
    6506     1832     1816 1
    6507     4809     4810 1
    6508     4585     4586 1
    6509      219      218 1
    6510     1581     1583 1
    6511     1356     1357 1
    6512     4875     4876 1
    6513    12752    12754 1
    6514     3050     3052 1
    6515     6131     6132 1
    6516      949      950 1
    6517      498      499 1
    6518     1057     1058 1
    6519      943      944 1
    6520     1342     1346 1
    6521    10463    10464 1
    6522      339      335 1
    6523      380      376 1
    6524     2293     2294 1
    6525    12917    12918 1
    6526     7364     7366 1
    6527    10244    10245 1
    6528    12512    12513 1
    6529    10838    10839 1
    6530     8840     8841 1
    6531     9281     9283 1
    6532     8489     8490 1
    6533      308      307 1
    6534     3367     3371 1
    6535    12359    12361 1
    6536     9650     9651 1
    6537      673      674 1
    6538     4084     4085 1
    6539    11105    11106 1
    6540     7472     7474 1
    6541     1307     1308 1
    6542    10682    10683 1
    6543     1041     1042 1
    6544     6848     6849 1
    6545     1532     1533 1
    6546     3654     3651 1
    6547     6611     6612 1
    6548     1758     1759 1
    6549     3765     3766 1
    6550      108      107 1
    6551     8681     8683 1
    6552     6764     6766 1
    6553     4421     4424 1
    6554    10517    10519 1
    6555     8600     8602 1
    6556    12596    12598 1
    6557     6683     6685 1
    6558    10760    10762 1
    6559     9293     9295 1
    6560    11210    11212 1
    6561     7457     7459 1
    6562     7295     7297 1
    6563    11291    11293 1
    6564     5621     5623 1
    6565     7376     7378 1
    6566       29       30 1
    6567     5639     5640 1
    6568     1229     1210 1
    6569     1151     1152 1
    6570     9905     9907 1
    6571    10310    10312 1
    6572     7988     7990 1
    6573     6476     6478 1
    6574     5936     5938 1
    6575     7853     7855 1
    6576     6098     6100 1
    6577     7826     7828 1
    6578    11282    11284 1
    6579     7448     7450 1
    6580     5918     5920 1
    6581     3050     3046 1
    6582     2479     2480 1
    6583     2045     2046 1
    6584     4055     4056 1
    6585    12326    12327 1
    6586     1716     1717 1
    6587     2361     2362 1
    6588     2999     3001 1
    6589      207      206 1
    6590     8504     8505 1
    6591      972      975 1
    6592     8390     8391 1
    6593     8552     8553 1
    6594    10226    10227 1
    6595    10307    10308 1
    6596    10841    10842 1
    6597     6473     6474 1
    6598     1652     1636 1
    6599     6554     6555 1
    6600    10388    10389 1
    6601     5978     5979 1
    6602     3051     3052 1
    6603     2384     2385 1
    6604     4880     4881 1
    6605     8609     8610 1
    6606    12605    12606 1
    6607     8420     8421 1
    6608     8339     8340 1
    6609     6584     6585 1
    6610     8852     8853 1
    6611    10580    10581 1
    6612    10688    10689 1
    6613    10418    10419 1
    6614     6503     6504 1
    6615     9491     9492 1
    6616     4110     4111 1
    6617     5657     5658 1
    6618     4817     4818 1
    6619    10571    10572 1
    6620     8654     8655 1
    6621    11570    11571 1
    6622     7736     7737 1
    6623     5228     5229 1
    6624     3207     3208 1
    6625     4189     4190 1
    6626     3045     3048 1
    6627     3858     3859 1
    6628     8627     8629 1
    6629     8786     8787 1
    6630     3207     3210 1
    6631     2429     2430 1
    6632     1570     1571 1
    6633     1784     1785 1
    6634     3825     3826 1
    6635    10796    10798 1
    6636     2767     2768 1
    6637     1843     1844 1
    6638     1687     1688 1
    6639     8165     8166 1
    6640     2373     2376 1
    6641     4047     4048 1
    6642     6947     6949 1
    6643     5369     5370 1
    6644    10700    10701 1
    6645     9161     9162 1
    6646     3689     3692 1
    6647     8561     8562 1
    6648    10385    10387 1
    6649     3007     3010 1
    6650    11141    11143 1
    6651     5501     5503 1
    6652     4522     4523 1
    6653     6983     6984 1
    6654     1319     1320 1
    6655     2026     2027 1
    6656     4262     4261 1
    6657     7478     7480 1
    6658     8072     8074 1
    6659     7829     7831 1
    6660     5750     5752 1
    6661     7991     7993 1
    6662     5993     5995 1
    6663     7910     7912 1
    6664     9908     9910 1
    6665     7670     7671 1
    6666    11744    11746 1
    6667     4097     4100 1
    6668    11666    11667 1
    6669     5591     5592 1
    6670      528      529 1
    6671     1277     1278 1
    6672     4670     4671 1
    6673     4398     4399 1
    6674     3726     3727 1
    6675     4444     4445 1
    6676      733      734 1
    6677     1011     1012 1
    6678     5089     5090 1
    6679    11138    11140 1
    6680     7001     7002 1
    6681     6812     6813 1
    6682     6974     6975 1
    6683    12806    12807 1
    6684     7244     7245 1
    6685    12725    12726 1
    6686     8999     9000 1
    6687     8729     8730 1
    6688     6920     6921 1
    6689    12563    12564 1
    6690      181      182 1
    6691     7628     7629 1
    6692    11462    11463 1
    6693     4902     4903 1
    6694     1462     1463 1
    6695     5042     5043 1
    6696     2458     2459 1
    6697     2883     2884 1
    6698     2049     2051 1
    6699      758      759 1
    6700     4867     4868 1
    6701     2402     2403 1
    6702     5211     5212 1
    6703    12836    12838 1
    6704     3107     3108 1
    6705     3031     3032 1
    6706     4208     4209 1
    6707     4489     4490 1
    6708    12428    12429 1
    6709     4043     4042 1
    6710      304      303 1
    6711     2414     2415 1
    6712     4124     4125 1
    6713      412      411 1
    6714     4984     4985 1
    6715     4339     4340 1
    6716     3199     3200 1
    6717     1424     1425 1
    6718      675      677 1
    6719     5363     5365 1
    6720     9644     9646 1
    6721    10076    10078 1
    6722    11912    11914 1
    6723    11831    11833 1
    6724     6161     6163 1
    6725     9887     9889 1
    6726     6053     6055 1
    6727     9995     9997 1
    6728     5810     5812 1
    6729     5891     5893 1
    6730     9335     9336 1
    6731     1089     1091 1
    6732     9008     9009 1
    6733     8771     8773 1
    6734    11012    11014 1
    6735      474      472 1
    6736     2541     2542 1
    6737     1838     1839 1
    6738      297      298 1
    6739     1896     1897 1
    6740     7820     7821 1
    6741     9899     9900 1
    6742    11276    11277 1
    6743     7982     7983 1
    6744     5903     5904 1
    6745     5741     5742 1
    6746     9737     9738 1
    6747     7442     7443 1
    6748     8267     8269 1
    6749     7280     7281 1
    6750     3287     3288 1
    6751     6617     6619 1
    6752     3821     3825 1
    6753     3924     3920 1
    6754     2405     2406 1
    6755     1864     1865 1
    6756     4106     4107 1
    6757     2512     2513 1
    6758     2078     2079 1
    6759     4588     4589 1
    6760    10790    10791 1
    6761     3486     3483 1
    6762     9392     9393 1
    6763     5510     5511 1
    6764     4194     4193 1
    6765     3072     3073 1
    6766    11549    11550 1
    6767    11927    11928 1
    6768     5636     5637 1
    6769     9848     9849 1
    6770    10010    10011 1
    6771     8093     8094 1
    6772     6176     6177 1
    6773     4874     4875 1
    6774     7877     7878 1
    6775     9470     9471 1
    6776     8528     8530 1
    6777     4286     4287 1
    6778      668      669 1
    6779    11111    11112 1
    6780     3096     3098 1
    6781     4257     4258 1
    6782     1193     1194 1
    6783     4469     4470 1
    6784     1267     1268 1
    6785     1176     1177 1
    6786     6995     6996 1
    6787     6350     6351 1
    6788     3378     3379 1
    6789     9032     9033 1
    6790    10868    10869 1
    6791     6158     6160 1
    6792    11909    11911 1
    6793     9329     9330 1
    6794     7697     7699 1
    6795     7034     7035 1
    6796     7574     7575 1
    6797     9452     9454 1
    6798     9992     9994 1
    6799     8864     8866 1
    6800     2814     2817 1
    6801     4864     4865 1
    6802     5136     5137 1
    6803     2895     2896 1
    6804     5408     5410 1
    6805     5528     5530 1
    6806    10823    10824 1
    6807     6635     6637 1
    6808      757      758 1
    6809      967      968 1
    6810     5726     5728 1
    6811     2530     2531 1
    6812     1277     1276 1
    6813     2953     2957 1
    6814      188      185 1
    6815     5576     5578 1
    6816     1496     1497 1
    6817     3888     3887 1
    6818     2977     2979 1
    6819     2912     2908 1
    6820     7604     7606 1
    6821      743      745 1
    6822     6242     6243 1
    6823    12236    12237 1
    6824     8240     8241 1
    6825    12074    12075 1
    6826    12155    12156 1
    6827     6323     6324 1
    6828     8159     8160 1
    6829     3032     3033 1
    6830     8321     8322 1
    6831     1987     1988 1
    6832     2687     2683 1
    6833      199      202 1
    6834     3927     3929 1
    6835      927      931 1
    6836     2155     2154 1
    6837     3451     3450 1
    6838     2624     2608 1
    6839     6356     6357 1
    6840     1596     1597 1
    6841    10409    10410 1
    6842      193      191 1
    6843     3385     3384 1
    6844      813      815 1
    6845     4759     4760 1
    6846     1174     1175 1
    6847    12527    12529 1
    6848     8369     8371 1
    6849     6452     6454 1
    6850     6290     6292 1
    6851     8531     8533 1
    6852     8207     8209 1
    6853     6128     6130 1
    6854     9965     9966 1
    6855     8966     8967 1
    6856     7049     7050 1
    6857    11882    11883 1
    6858     8048     8049 1
    6859    12044    12045 1
    6860    11234    11235 1
    6861     7400     7401 1
    6862     8237     8238 1
    6863     9155     9156 1
    6864     7601     7602 1
    6865    12005    12007 1
    6866     4828     4827 1
    6867     1364     1363 1
    6868      537      539 1
    6869     2442     2443 1
    6870     2008     2009 1
    6871     4001     4000 1
    6872     9038     9040 1
    6873     3152     3153 1
    6874     3718     3719 1
    6875     2807     2808 1
    6876    11351    11352 1
    6877     9596     9597 1
    6878    11513    11514 1
    6879     5681     5682 1
    6880     9515     9516 1
    6881     9272     9273 1
    6882     7436     7437 1
    6883     9434     9435 1
    6884    11432    11433 1
    6885     4129     4130 1
    6886    12212    12214 1
    6887     9809     9811 1
    6888     8972     8974 1
    6889     9971     9973 1
    6890    11213    11215 1
    6891     9296     9298 1
    6892    11888    11890 1
    6893     3453     3457 1
    6894     8054     8056 1
    6895    10889    10891 1
    6896     5312     5313 1
    6897    11162    11164 1
    6898     5423     5425 1
    6899     3229     3231 1
    6900     1216     1217 1
    6901     1879     1880 1
    6902     2579     2580 1
    6903     8699     8701 1
    6904     9617     9619 1
    6905     5783     5785 1
    6906    11696    11698 1
    6907    11534    11536 1
    6908     6782     6784 1
    6909     2925     2926 1
    6910     8861     8863 1
    6911     9779     9781 1
    6912     6620     6622 1
    6913     1482     1483 1
    6914     6239     6240 1
    6915    10580    10582 1
    6916    10688    10690 1
    6917     6854     6856 1
    6918    12605    12607 1
    6919     8609     8611 1
    6920     8420     8422 1
    6921     8744     8746 1
    6922     8339     8341 1
    6923     6584     6586 1
    6924    12335    12337 1
    6925      784      783 1
    6926     8111     8112 1
    6927     6194     6195 1
    6928      247      243 1
    6929     3756     3757 1
    6930     9605     9607 1
    6931     8849     8851 1
    6932      130      131 1
    6933     8792     8793 1
    6934     5795     5796 1
    6935     1611     1612 1
    6936     6875     6876 1
    6937    11708    11709 1
    6938    10709    10710 1
    6939     1984     1985 1
    6940    12788    12789 1
    6941    12626    12627 1
    6942     9629     9630 1
    6943      703      707 1
    6944      443      444 1
    6945     3280     3282 1
    6946     1164     1163 1
    6947    12689    12690 1
    6948    12851    12852 1
    6949     9017     9018 1
    6950     6101     6102 1
    6951     7856     7857 1
    6952     4705     4704 1
    6953    10610    10611 1
    6954    11852    11853 1
    6955     5939     5940 1
    6956     6938     6939 1
    6957     3474     3473 1
    6958     1683     1684 1
    6959     6314     6315 1
    6960     4362     4361 1
    6961     3763     3762 1
    6962     3909     3910 1
    6963     2352     2353 1
    6964     1797     1799 1
    6965      873      872 1
    6966     3394     3395 1
    6967     1264     1263 1
    6968     4686     4687 1
    6969     4741     4742 1
    6970     3204     3205 1
    6971     9203     9204 1
    6972    11957    11958 1
    6973     7961     7962 1
    6974    12470    12471 1
    6975     8636     8637 1
    6976     8123     8124 1
    6977    10040    10041 1
    6978     6368     6369 1
    6979    11552    11553 1
    6980     6719     6720 1
    6981     3444     3445 1
    6982      596      595 1
    6983     9077     9079 1
    6984     1157     1158 1
    6985     7157     7159 1
    6986     3931     3932 1
    6987     4930     4931 1
    6988     4557     4558 1
    6989     6266     6268 1
    6990    12017    12019 1
    6991     1453     1454 1
    6992     4806     4807 1
    6993     4231     4232 1
    6994     2859     2860 1
    6995      834      833 1
    6996     3945     3943 1
    6997     2280     2281 1
    6998      749      750 1
    6999     2855     2856 1
    7000     3176     3175 1
    7001     2835     2834 1
    7002     4009     4005 1
    7003      374      373 1
    7004    11024    11026 1
    7005     3315     3317 1
    7006     8741     8743 1
    7007      300      301 1
    7008     7325     7326 1
    7009    10418    10420 1
    7010      835      839 1
    7011     6197     6198 1
    7012     9239     9240 1
    7013     7226     7227 1
    7014     5426     5427 1
    7015      575      576 1
    7016     1324     1325 1
    7017     5924     5926 1
    7018    10262    10263 1
    7019     8264     8265 1
    7020    12179    12180 1
    7021     6266     6267 1
    7022     6347     6348 1
    7023    12422    12423 1
    7024    10343    10344 1
    7025    12260    12261 1
    7026    10181    10182 1
    7027    12017    12018 1
    7028    10508    10510 1
    7029    12746    12748 1
    7030     6542     6543 1
    7031    10376    10377 1
    7032     6218     6219 1
    7033     8891     8892 1
    7034    11807    11808 1
    7035    10808    10809 1
    7036     8297     8298 1
    7037    12131    12132 1
    7038    11645    11646 1
    7039      208      209 1
    7040     2395     2396 1
    7041     3517     3516 1
    7042      259      258 1
    7043     1179     1180 1
    7044     4758     4759 1
    7045     2193     2196 1
    7046     3717     3716 1
    7047     3874     3878 1
    7048      317      316 1
    7049      672      671 1
    7050     2082     2083 1
    7051     9083     9084 1
    7052     1443     1439 1
    7053      981      984 1
    7054     4777     4778 1
    7055     4713     4714 1
    7056     2937     2936 1
    7057     4024     4025 1
    7058     5255     5256 1
    7059     3670     3671 1
    7060     2753     2754 1
    7061     2409     2410 1
    7062      339      337 1
    7063     2310     2311 1
    7064      509      507 1
    7065     1617     1618 1
    7066     9668     9669 1
    7067      291      292 1
    7068     2531     2532 1
    7069      605      607 1
    7070     2094     2095 1
    7071      115      116 1
    7072     3375     3378 1
    7073     2538     2539 1
    7074      254      255 1
    7075     8219     8221 1
    7076     2556     2553 1
    7077     8414     8415 1
    7078    12437    12438 1
    7079     8684     8685 1
    7080     6416     6417 1
    7081    12599    12600 1
    7082     6767     6768 1
    7083     6497     6498 1
    7084     8333     8334 1
    7085     8603     8604 1
    7086    10574    10575 1
    7087     3281     3285 1
    7088     2743     2744 1
    7089     3021     3022 1
    7090     3702     3703 1
    7091     7127     7128 1
    7092     9044     9045 1
    7093     3495     3494 1
    7094     8882     8883 1
    7095     7046     7047 1
    7096     8963     8964 1
    7097    10880    10881 1
    7098     3797     3796 1
    7099    10799    10800 1
    7100      393      392 1
    7101    11663    11665 1
    7102     5696     5698 1
    7103     2728     2730 1
    7104    12368    12370 1
    7105     3207     3209 1
    7106     4676     4677 1
    7107     1739     1740 1
    7108     6119     6120 1
    7109      629      632 1
    7110     7238     7239 1
    7111     3897     3898 1
    7112     3827     3828 1
    7113     2729     2733 1
    7114    10913    10914 1
    7115      215      218 1
    7116     5060     5061 1
    7117     9965     9967 1
    7118     1982     1983 1
    7119    10655    10656 1
    7120     1615     1616 1
    7121    12572    12574 1
    7122    10379    10381 1
    7123    12134    12136 1
    7124     9029     9031 1
    7125    12863    12865 1
    7126    10622    10624 1
    7127     8300     8302 1
    7128     6545     6547 1
    7129    10784    10786 1
    7130     2073     2074 1
    7131     6950     6952 1
    7132     3569     3568 1
    7133     2111     2110 1
    7134     3283     3286 1
    7135    11447    11448 1
    7136     4866     4867 1
    7137     9125     9127 1
    7138     2527     2528 1
    7139     2521     2522 1
    7140     2365     2366 1
    7141    10868    10870 1
    7142     5333     5335 1
    7143     3675     3676 1
    7144     4041     4042 1
    7145     6671     6672 1
    7146     3639     3637 1
    7147     5014     5015 1
    7148    10481    10482 1
    7149    10643    10644 1
    7150    12398    12399 1
    7151     6728     6729 1
    7152    10562    10563 1
    7153     8645     8646 1
    7154     3713     3714 1
    7155     2827     2828 1
    7156    12479    12480 1
    7157    12317    12318 1
    7158     1676     1677 1
    7159     2321     2322 1
    7160    11054    11056 1
    7161     3333     3334 1
    7162     2625     2629 1
    7163     1189     1190 1
    7164     1265     1266 1
    7165     8993     8995 1
    7166     1858     1859 1
    7167     6125     6127 1
    7168     7085     7086 1
    7169     1589     1590 1
    7170     4536     4537 1
    7171     1455     1456 1
    7172     1379     1380 1
    7173      817      818 1
    7174     4163     4164 1
    7175     4808     4809 1
    7176     5233     5234 1
    7177      896      897 1
    7178     4371     4372 1
    7179     8510     8512 1
    7180     4172     4173 1
    7181     4453     4454 1
    7182     5098     5099 1
    7183      452      453 1
    7184     6515     6517 1
    7185     1362     1363 1
    7186     4826     4827 1
    7187    11045    11046 1
    7188     2184     2185 1
    7189      940      941 1
    7190     2138     2139 1
    7191     2655     2656 1
    7192     4153     4135 1
    7193     1372     1373 1
    7194     3131     3134 1
    7195     4822     4823 1
    7196     1584     1585 1
    7197    11483    11484 1
    7198    11225    11227 1
    7199     7391     7393 1
    7200    10874    10876 1
    7201    10793    10795 1
    7202     9389     9391 1
    7203     7121     7123 1
    7204     3010     3011 1
    7205     8957     8959 1
    7206     7310     7312 1
    7207     8876     8878 1
    7208     3016     3017 1
    7209     2777     2778 1
    7210     5199     5200 1
    7211     5075     5076 1
    7212     4216     4217 1
    7213     9650     9652 1
    7214     5909     5910 1
    7215     2815     2818 1
    7216     3735     3738 1
    7217    10322    10324 1
    7218     8567     8569 1
    7219     6488     6490 1
    7220     4329     4330 1
    7221     6110     6112 1
    7222     5948     5950 1
    7223    11861    11863 1
    7224     7865     7867 1
    7225     8405     8407 1
    7226     4974     4975 1
    7227     7868     7869 1
    7228     6956     6957 1
    7229     5378     5380 1
    7230     5351     5353 1
    7231       29       28 1
    7232     1818     1819 1
    7233     2252     2253 1
    7234     1607     1608 1
    7235     2336     2320 1
    7236      596      597 1
    7237     4550     4551 1
    7238     2177     2159 1
    7239     8690     8691 1
    7240    12002    12004 1
    7241     6062     6064 1
    7242     5900     5902 1
    7243     7817     7819 1
    7244    11840    11842 1
    7245    10085    10087 1
    7246     9896     9898 1
    7247     9941     9943 1
    7248     9563     9565 1
    7249     9725     9727 1
    7250     7646     7648 1
    7251    10103    10105 1
    7252     8024     8026 1
    7253    11480    11482 1
    7254     1393     1397 1
    7255     7484     7486 1
    7256     8186     8188 1
    7257      421      422 1
    7258     4065     4066 1
    7259     6719     6721 1
    7260     9203     9205 1
    7261    10040    10042 1
    7262     6368     6370 1
    7263     7961     7963 1
    7264    10202    10204 1
    7265    12470    12472 1
    7266     8636     8638 1
    7267     3479     3478 1
    7268     8123     8125 1
    7269     9167     9168 1
    7270     1514     1515 1
    7271     3667     3668 1
    7272     8825     8827 1
    7273      821      822 1
    7274     9767     9769 1
    7275     2003     2004 1
    7276     1847     1848 1
    7277      829      833 1
    7278     1227     1229 1
    7279       55       52 1
    7280     5669     5671 1
    7281     3211     3212 1
    7282     3183     3186 1
    7283     2234     2235 1
    7284     4103     4104 1
    7285     1592     1593 1
    7286     2683     2684 1
    7287     2658     2659 1
    7288     2723     2725 1
    7289    12032    12033 1
    7290     8504     8506 1
    7291     7460     7461 1
    7292    11294    11295 1
    7293      585      566 1
    7294     8363     8364 1
    7295     8201     8202 1
    7296     6284     6285 1
    7297     6122     6123 1
    7298     2210     2209 1
    7299     3527     3526 1
    7300      495      496 1
    7301     5226     5227 1
    7302     5978     5980 1
    7303     2387     2388 1
    7304     1742     1743 1
    7305    11903    11904 1
    7306    11363    11364 1
    7307     6152     6153 1
    7308     7691     7692 1
    7309     7529     7530 1
    7310     9986     9987 1
    7311     9446     9447 1
    7312    10148    10149 1
    7313    12677    12678 1
    7314    12515    12516 1
    7315     4580     4581 1
    7316     9290     9292 1
    7317     7373     7375 1
    7318    12758    12759 1
    7319     7088     7089 1
    7320      454      455 1
    7321     8075     8077 1
    7322     4886     4887 1
    7323     5225     5226 1
    7324     3335     3334 1
    7325     2744     2745 1
    7326     1311     1312 1
    7327     4274     4275 1
    7328     4430     4431 1
    7329     5558     5559 1
    7330     9014     9015 1
    7331    11309    11310 1
    7332      567      570 1
    7333     9170     9171 1
    7334     3919     3923 1
    7335     1521     1522 1
    7336     2166     2167 1
    7337     2438     2439 1
    7338     2218     2219 1
    7339     1793     1794 1
    7340     1573     1574 1
    7341     5513     5515 1
    7342     3497     3498 1
    7343     2867     2871 1
    7344      599      603 1
    7345      510      507 1
    7346     8165     8167 1
    7347      519      520 1
    7348      973      975 1
    7349     3652     3651 1
    7350     2731     2734 1
    7351     8402     8403 1
    7352    10238    10239 1
    7353    10319    10320 1
    7354     6485     6486 1
    7355     3789     3790 1
    7356     8564     8565 1
    7357     6566     6567 1
    7358    10400    10401 1
    7359     8483     8484 1
    7360    10997    10998 1
    7361     7511     7513 1
    7362     6773     6775 1
    7363    10196    10198 1
    7364     6890     6891 1
    7365    11114    11116 1
    7366     4302     4303 1
    7367     3461     3458 1
    7368     7718     7720 1
    7369     7571     7572 1
    7370     2777     2780 1
    7371      313      312 1
    7372     5522     5523 1
    7373     4790     4791 1
    7374      777      778 1
    7375     2490     2491 1
    7376     1409     1410 1
    7377     5282     5283 1
    7378     1891     1892 1
    7379      629      631 1
    7380     2589     2590 1
    7381    12665    12667 1
    7382     6569     6570 1
    7383    11780    11781 1
    7384    10241    10242 1
    7385     7784     7785 1
    7386     7946     7947 1
    7387     2346     2347 1
    7388     4335     4336 1
    7389     1420     1421 1
    7390     8486     8487 1
    7391       41       42 1
    7392     8465     8466 1
    7393     6428     6429 1
    7394     9683     9685 1
    7395     5744     5745 1
    7396     3073     3074 1
    7397     6041     6043 1
    7398     7796     7798 1
    7399    10253    10255 1
    7400     7394     7396 1
    7401     6257     6259 1
    7402     9875     9877 1
    7403     5879     5881 1
    7404    12170    12172 1
    7405    12008    12010 1
    7406      461      463 1
    7407     3167     3168 1
    7408     3752     3753 1
    7409     4033     4034 1
    7410     3951     3952 1
    7411     3104     3105 1
    7412     3028     3029 1
    7413     3161     3162 1
    7414     4868     4869 1
    7415     4263     4264 1
    7416     4477     4478 1
    7417     4935     4936 1
    7418     4290     4291 1
    7419     4345     4346 1
    7420     4773     4774 1
    7421     4779     4780 1
    7422     4990     4991 1
    7423     2177     2178 1
    7424     1140     1141 1
    7425     5146     5147 1
    7426     4501     4502 1
    7427      323      324 1
    7428     6107     6109 1
    7429     5945     5947 1
    7430     7862     7864 1
    7431    11858    11860 1
    7432    12857    12859 1
    7433     9023     9025 1
    7434    10778    10780 1
    7435    10616    10618 1
    7436    11558    11560 1
    7437     3092     3096 1
    7438       61       64 1
    7439      101       99 1
    7440     6287     6288 1
    7441    12071    12072 1
    7442    12731    12733 1
    7443     8381     8382 1
    7444    12593    12594 1
    7445     1633     1634 1
    7446     1989     1988 1
    7447    10046    10048 1
    7448     8630     8631 1
    7449    12464    12465 1
    7450    11546    11547 1
    7451    12302    12303 1
    7452     5633     5634 1
    7453     6713     6714 1
    7454     9467     9468 1
    7455    10547    10548 1
    7456     7874     7875 1
    7457     7712     7713 1
    7458     8696     8698 1
    7459     3220     3221 1
    7460      815      796 1
    7461     1249     1253 1
    7462     1856     1855 1
    7463     4519     4520 1
    7464      709      710 1
    7465    10154    10156 1
    7466     3063     3064 1
    7467     9287     9288 1
    7468    12203    12204 1
    7469     7370     7371 1
    7470     5615     5616 1
    7471    11204    11205 1
    7472    12365    12366 1
    7473    10124    10125 1
    7474     1333     1334 1
    7475     2114     2115 1
    7476     3248     3249 1
    7477     3536     3537 1
    7478      829      831 1
    7479     2265     2267 1
    7480      228      227 1
    7481     5852     5853 1
    7482     6851     6852 1
    7483    10685    10686 1
    7484    12602    12603 1
    7485    12440    12441 1
    7486    11603    11604 1
    7487     8606     8607 1
    7488     5690     5691 1
    7489     9686     9687 1
    7490       40       39 1
    7491       35       36 1
    7492     4190     4191 1
    7493     1145     1146 1
    7494     1909     1910 1
    7495      662      663 1
    7496     4561     4560 1
    7497     3653     3651 1
    7498      366      367 1
    7499     4729     4711 1
    7500      901      902 1
    7501      816      817 1
    7502     4969     4970 1
    7503     5241     5242 1
    7504      274      273 1
    7505     3973     3974 1
    7506     9356     9357 1
    7507     7520     7521 1
    7508     4846     4847 1
    7509     5002     5003 1
    7510     4632     4633 1
    7511     7115     7116 1
    7512     5066     5067 1
    7513     9194     9195 1
    7514     7277     7278 1
    7515    11192    11193 1
    7516     4788     4789 1
    7517     4073     4074 1
    7518     3080     3081 1
    7519     2805     2806 1
    7520     4853     4854 1
    7521     3295     3296 1
    7522    12680    12682 1
    7523    12113    12114 1
    7524     7328     7330 1
    7525    11243    11245 1
    7526     7409     7411 1
    7527     7166     7168 1
    7528    12200    12201 1
    7529    11000    11002 1
    7530     7508     7510 1
    7531     9164     9166 1
    7532     9407     9409 1
    7533     2861     2863 1
    7534     2688     2689 1
    7535     2249     2250 1
    7536     1983     1984 1
    7537    11123    11125 1
    7538     3520     3519 1
    7539     4114     4115 1
    7540     2685     2688 1
    7541     9248     9249 1
    7542     2605     2606 1
    7543     1013     1015 1
    7544     1302     1300 1
    7545     1243     1247 1
    7546     1761     1763 1
    7547     4168     4152 1
    7548     2862     2866 1
    7549     2731     2732 1
    7550     4673     4674 1
    7551      990      991 1
    7552    12287    12289 1
    7553     6914     6916 1
    7554     3372     3374 1
    7555      235      236 1
    7556     2193     2195 1
    7557     4493     4496 1
    7558     8204     8206 1
    7559    12755    12756 1
    7560     3604     3603 1
    7561    10676    10677 1
    7562     3517     3518 1
    7563     4191     4192 1
    7564     6965     6967 1
    7565    12554    12556 1
    7566     8801     8803 1
    7567    10718    10720 1
    7568     6803     6805 1
    7569    12797    12799 1
    7570     6884     6886 1
    7571     8183     8184 1
    7572     8021     8022 1
    7573    12098    12099 1
    7574     8102     8103 1
    7575    11936    11937 1
    7576    10019    10020 1
    7577     9857     9858 1
    7578     6185     6186 1
    7579    10100    10101 1
    7580     9938     9939 1
    7581     6293     6294 1
    7582    11411    11413 1
    7583      905      907 1
    7584     2906     2909 1
    7585     4232     4233 1
    7586     1593     1594 1
    7587     6167     6168 1
    7588     5816     5817 1
    7589     9893     9894 1
    7590    11837    11838 1
    7591    10001    10002 1
    7592    11918    11919 1
    7593    10082    10083 1
    7594     6059     6060 1
    7595     7250     7252 1
    7596     5897     5898 1
    7597     4343     4344 1
    7598     3246     3247 1
    7599    10082    10084 1
    7600    12104    12106 1
    7601    10106    10108 1
    7602    11942    11944 1
    7603     8027     8029 1
    7604     9944     9946 1
    7605     4961     4964 1
    7606     9863     9865 1
    7607    10025    10027 1
    7608     4668     4669 1
    7609     8108     8110 1
    7610    10430    10431 1
    7611     4426     4427 1
    7612     1601     1583 1
    7613     2611     2612 1
    7614     1146     1147 1
    7615     3771     3772 1
    7616     1882     1883 1
    7617     2846     2847 1
    7618    12791    12792 1
    7619     2517     2520 1
    7620     3758     3757 1
    7621      369      373 1
    7622     3741     3742 1
    7623     7319     7320 1
    7624     6152     6154 1
    7625     9986     9988 1
    7626    11363    11365 1
    7627    11903    11905 1
    7628     7529     7531 1
    7629     7691     7693 1
    7630     9446     9448 1
    7631    10148    10150 1
    7632     6629     6630 1
    7633     9866     9867 1
    7634      843      846 1
    7635     4035     4036 1
    7636     3965     3966 1
    7637     8111     8113 1
    7638     6194     6196 1
    7639     8576     8577 1
    7640    10763    10764 1
    7641    10844    10845 1
    7642    10601    10602 1
    7643     6659     6660 1
    7644     7010     7011 1
    7645    12842    12843 1
    7646     1981     1982 1
    7647     1825     1826 1
    7648    10493    10494 1
    7649    12086    12088 1
    7650     2306     2307 1
    7651     2578     2579 1
    7652     1713     1714 1
    7653     4733     4734 1
    7654     9206     9207 1
    7655     9368     9369 1
    7656     9449     9450 1
    7657    11123    11124 1
    7658     7613     7614 1
    7659    10961    10962 1
    7660    12878    12879 1
    7661     7694     7695 1
    7662     3575     3578 1
    7663     7532     7533 1
    7664    12581    12582 1
    7665     2676     2679 1
    7666     5534     5535 1
    7667     7136     7137 1
    7668     2077     2076 1
    7669     3433     3434 1
    7670     3597     3598 1
    7671    11819    11820 1
    7672     6149     6150 1
    7673     9983     9984 1
    7674      421      424 1
    7675     3704     3705 1
    7676    10064    10065 1
    7677    11900    11901 1
    7678    11981    11982 1
    7679    10145    10146 1
    7680      202      203 1
    7681     4420     4404 1
    7682     4738     4739 1
    7683     4466     4467 1
    7684     5111     5112 1
    7685     8468     8469 1
    7686    11951    11952 1
    7687      414      413 1
    7688     3656     3655 1
    7689     3488     3487 1
    7690    11894    11895 1
    7691     8060     8061 1
    7692     5501     5502 1
    7693     9977     9978 1
    7694     7061     7062 1
    7695      805      806 1
    7696    10895    10896 1
    7697     5414     5416 1
    7698    12056    12057 1
    7699     8978     8979 1
    7700     3627     3626 1
    7701     2471     2472 1
    7702     4213     4214 1
    7703     1308     1309 1
    7704     3013     3012 1
    7705     2558     2559 1
    7706     2425     2426 1
    7707     2517     2518 1
    7708    11003    11005 1
    7709     4858     4859 1
    7710    10910    10911 1
    7711     3716     3713 1
    7712     4390     4391 1
    7713    12092    12094 1
    7714     3253     3254 1
    7715     1567     1568 1
    7716     1876     1877 1
    7717     3678     3677 1
    7718     3687     3688 1
    7719     1846     1847 1
    7720     2543     2544 1
    7721     2054     2055 1
    7722     2118     2119 1
    7723    12485    12486 1
    7724     3946     3947 1
    7725    12332    12334 1
    7726     5405     5407 1
    7727     9068     9069 1
    7728     1712     1711 1
    7729     3005     3009 1
    7730    12830    12831 1
    7731      558      557 1
    7732     9479     9480 1
    7733     3338     3337 1
    7734    10277    10278 1
    7735      491      492 1
    7736      567      568 1
    7737     3635     3636 1
    7738     5543     5544 1
    7739     4200     4201 1
    7740    11420    11422 1
    7741     7424     7426 1
    7742    11501    11503 1
    7743    11339    11341 1
    7744     1966     1965 1
    7745     9260     9262 1
    7746     9584     9586 1
    7747      925      921 1
    7748     2400     2399 1
    7749     9422     9424 1
    7750     1341     1344 1
    7751     1755     1754 1
    7752      724      725 1
    7753     4233     4234 1
    7754     4615     4616 1
    7755     7844     7845 1
    7756     8945     8946 1
    7757    10943    10944 1
    7758     3653     3649 1
    7759     7190     7191 1
    7760    12779    12780 1
    7761     5000     5001 1
    7762      199      201 1
    7763     1471     1472 1
    7764     4957     4958 1
    7765     1465     1466 1
    7766      988      989 1
    7767     4899     4900 1
    7768      513      514 1
    7769     4801     4802 1
    7770     4755     4756 1
    7771     1094     1095 1
    7772     1941     1944 1
    7773       15       18 1
    7774     6560     6562 1
    7775     4669     4670 1
    7776     4611     4612 1
    7777     9308     9310 1
    7778    11387    11389 1
    7779     5555     5557 1
    7780    11306    11308 1
    7781     7553     7555 1
    7782     5717     5719 1
    7783    11144    11146 1
    7784     2613     2614 1
    7785     1974     1975 1
    7786     9083     9085 1
    7787     3466     3464 1
    7788     9824     9825 1
    7789     4697     4698 1
    7790     1306     1307 1
    7791     1230     1231 1
    7792     5213     5216 1
    7793      964      965 1
    7794     4214     4215 1
    7795     1040     1041 1
    7796     7001     7003 1
    7797      731      732 1
    7798     4859     4860 1
    7799     1824     1825 1
    7800     1980     1981 1
    7801     1353     1352 1
    7802     9734     9736 1
    7803     7655     7657 1
    7804    10652    10654 1
    7805    11489    11491 1
    7806     6656     6658 1
    7807    12407    12409 1
    7808     9572     9574 1
    7809     7493     7495 1
    7810    10490    10492 1
    7811     8522     8524 1
    7812     3091     3095 1
    7813     8657     8658 1
    7814     2382     2383 1
    7815     3900     3897 1
    7816     1841     1842 1
    7817     2486     2487 1
    7818     2113     2114 1
    7819     4205     4207 1
    7820     2701     2703 1
    7821     3435     3436 1
    7822    12866    12867 1
    7823     9521     9522 1
    7824      377      374 1
    7825     5906     5908 1
    7826     1336     1335 1
    7827     8150     8151 1
    7828     3299     3301 1
    7829    12281    12283 1
    7830     3903     3904 1
    7831      467      470 1
    7832      946      947 1
    7833     2170     2171 1
    7834     2436     2437 1
    7835     7199     7200 1
    7836     3553     3550 1
    7837     1211     1212 1
    7838      521      522 1
    7839    11585    11587 1
    7840     5834     5836 1
    7841     9668     9670 1
    7842     4837     4838 1
    7843     1325     1326 1
    7844     3798     3799 1
    7845     4291     4292 1
    7846    12356    12357 1
    7847      670      671 1
    7848     8948     8950 1
    7849    12782    12784 1
    7850    10946    10948 1
    7851     7220     7222 1
    7852     7070     7071 1
    7853    11135    11137 1
    7854    10973    10975 1
    7855     9218     9220 1
    7856    12890    12892 1
    7857     7193     7195 1
    7858     3880     3878 1
    7859     9182     9184 1
    7860     1473     1475 1
    7861     3337     3336 1
    7862     4319     4320 1
    7863     6665     6667 1
    7864     9482     9484 1
    7865    11447    11449 1
    7866     7613     7615 1
    7867     4837     4819 1
    7868     6899     6900 1
    7869     4195     4196 1
    7870     8144     8146 1
    7871     9833     9834 1
    7872     7997     7998 1
    7873     5756     5757 1
    7874     9914     9915 1
    7875     9752     9753 1
    7876     7754     7755 1
    7877     7835     7836 1
    7878    11750    11751 1
    7879      260      259 1
    7880     5663     5665 1
    7881     2324     2325 1
    7882      396      395 1
    7883     8549     8551 1
    7884     7808     7809 1
    7885     4470     4471 1
    7886     1801     1800 1
    7887     8534     8536 1
    7888     2286     2287 1
    7889     1641     1642 1
    7890     7205     7207 1
    7891     3404     3405 1
    7892     4216     4215 1
    7893     5187     5188 1
    7894     5031     5032 1
    7895     5245     5246 1
    7896      862      859 1
    7897      938      935 1
    7898     7739     7741 1
    7899    11735    11737 1
    7900     9278     9280 1
    7901     8063     8065 1
    7902     5606     5608 1
    7903     7361     7363 1
    7904    10358    10360 1
    7905     9818     9820 1
    7906     7577     7579 1
    7907    11195    11197 1
    7908    11966    11968 1
    7909    10916    10918 1
    7910     5003     5004 1
    7911     4789     4790 1
    7912     4847     4848 1
    7913     5261     5262 1
    7914     5009     5010 1
    7915    12857    12858 1
    7916     4283     4282 1
    7917     2859     2855 1
    7918     4462     4463 1
    7919     4523     4524 1
    7920    11402    11403 1
    7921     3475     3474 1
    7922     2920     2921 1
    7923      226      227 1
    7924      225      224 1
    7925     1289     1292 1
    7926     2501     2483 1
    7927      330      329 1
    7928     9551     9553 1
    7929    11468    11470 1
    7930     8174     8176 1
    7931     8012     8014 1
    7932    10091    10093 1
    7933     9713     9715 1
    7934    11783    11784 1
    7935    11864    11865 1
    7936     6113     6114 1
    7937     2979     2960 1
    7938    10517    10518 1
    7939     1013     1016 1
    7940     5912     5913 1
    7941     7622     7624 1
    7942     6704     6706 1
    7943     8459     8461 1
    7944     9377     9379 1
    7945    10538    10540 1
    7946     9539     9541 1
    7947    12293    12295 1
    7948    11456    11458 1
    7949      807      808 1
    7950     4613     4614 1
    7951     3450     3449 1
    7952     5474     5476 1
    7953     5495     5497 1
    7954     4383     4382 1
    7955     2553     2554 1
    7956     2137     2138 1
    7957     1393     1394 1
    7958     1013     1014 1
    7959     5315     5317 1
    7960     7055     7057 1
    7961    11621    11622 1
    7962     1480     1481 1
    7963     3348     3345 1
    7964     3963     3959 1
    7965    10904    10906 1
    7966     3359     3358 1
    7967    10706    10707 1
    7968     3338     3339 1
    7969     7505     7507 1
    7970     3881     3883 1
    7971     1884     1885 1
    7972     2529     2530 1
    7973     4681     4682 1
    7974     4739     4740 1
    7975     9080     9081 1
    7976     2839     2841 1
    7977     9233     9234 1
    7978     3817     3818 1
    7979     2704     2705 1
    7980     2189     2188 1
    7981     7751     7753 1
    7982     1970     1971 1
    7983     2615     2616 1
    7984     3177     3181 1
    7985     1698     1699 1
    7986     2445     2447 1
    7987       91       92 1
    7988     8846     8848 1
    7989    12038    12039 1
    7990     8960     8961 1
    7991    12065    12066 1
    7992     8231     8232 1
    7993    11876    11877 1
    7994     9149     9150 1
    7995    11228    11229 1
    7996     7394     7395 1
    7997    10877    10878 1
    7998     9797     9798 1
    7999     9047     9049 1
    8000     1407     1408 1
    8001     4143     4144 1
    8002     7130     7132 1
    8003    11801    11803 1
    8004     6401     6403 1
    8005     6212     6214 1
    8006     4577     4578 1
    8007     3821     3824 1
    8008     6077     6079 1
    8009     3083     3084 1
    8010     5318     5320 1
    8011     3137     3138 1
    8012     8885     8887 1
    8013     7412     7414 1
    8014     7556     7557 1
    8015     1576     1577 1
    8016     1955     1954 1
    8017     2444     2443 1
    8018     2456     2457 1
    8019     2459     2460 1
    8020     2666     2667 1
    8021     2669     2670 1
    8022     2540     2541 1
    8023     2268     2269 1
    8024     1895     1896 1
    8025     4111     4112 1
    8026      396      397 1
    8027     6458     6459 1
    8028     2434     2435 1
    8029    12533    12534 1
    8030    10346    10347 1
    8031    12425    12426 1
    8032    12263    12264 1
    8033    10184    10185 1
    8034     8267     8268 1
    8035    10454    10455 1
    8036     8537     8538 1
    8037     2321     2303 1
    8038     3328     3327 1
    8039     3567     3568 1
    8040     3493     3494 1
    8041     7922     7923 1
    8042    12116    12118 1
    8043     5471     5472 1
    8044     5498     5499 1
    8045     7571     7573 1
    8046     6722     6724 1
    8047     8639     8641 1
    8048    12392    12394 1
    8049    10637    10639 1
    8050    10475    10477 1
    8051    12311    12313 1
    8052    12473    12475 1
    8053     1295     1296 1
    8054     6038     6040 1
    8055     2300     2299 1
    8056     6794     6796 1
    8057     8711     8713 1
    8058     9872     9874 1
    8059    12707    12709 1
    8060     2803     2804 1
    8061    12545    12547 1
    8062     7793     7795 1
    8063     5876     5878 1
    8064     1611     1610 1
    8065     9458     9459 1
    8066     7541     7542 1
    8067    11375    11376 1
    8068    10295    10296 1
    8069     6461     6462 1
    8070     7703     7704 1
    8071    10457    10458 1
    8072    12536    12537 1
    8073     8540     8541 1
    8074    12449    12450 1
    8075     1571     1572 1
    8076     9251     9253 1
    8077     2677     2681 1
    8078     3795     3796 1
    8079    12728    12729 1
    8080     2701     2702 1
    8081     4241     4244 1
    8082     3454     3453 1
    8083     4265     4266 1
    8084    11102    11103 1
    8085     2835     2836 1
    8086     4030     4031 1
    8087     3309     3310 1
    8088     4642     4643 1
    8089     1236     1237 1
    8090     4914     4915 1
    8091    10187    10188 1
    8092     4971     4972 1
    8093      459      460 1
    8094      535      536 1
    8095     1966     1967 1
    8096     5155     5156 1
    8097     2556     2557 1
    8098     2400     2401 1
    8099     1755     1756 1
    8100     1222     1223 1
    8101     3143     3144 1
    8102     8432     8433 1
    8103     1720     1721 1
    8104     4421     4423 1
    8105      128      129 1
    8106     9455     9457 1
    8107     7700     7702 1
    8108     9374     9376 1
    8109     7538     7540 1
    8110     7619     7621 1
    8111    11372    11374 1
    8112     9536     9538 1
    8113    11453    11455 1
    8114      139      140 1
    8115     2149     2150 1
    8116     2097     2098 1
    8117    10736    10737 1
    8118       66       65 1
    8119      861      842 1
    8120    12593    12595 1
    8121     1047     1048 1
    8122     1013     1017 1
    8123     1156     1159 1
    8124     8750     8752 1
    8125     3520     3521 1
    8126     2229     2232 1
    8127     1465     1464 1
    8128      269      268 1
    8129     5366     5367 1
    8130     5007     5006 1
    8131      395      394 1
    8132     3992     3993 1
    8133     7580     7581 1
    8134     9821     9822 1
    8135     7904     7905 1
    8136     7985     7986 1
    8137     9902     9903 1
    8138     8066     8067 1
    8139     7742     7743 1
    8140    11738    11739 1
    8141     7823     7824 1
    8142     5906     5907 1
    8143      981      982 1
    8144     7292     7294 1
    8145     3490     3491 1
    8146      119      120 1
    8147     5120     5121 1
    8148     4894     4895 1
    8149     5166     5167 1
    8150     8198     8199 1
    8151     5180     5181 1
    8152     6677     6679 1
    8153     4457     4460 1
    8154     3773     3774 1
    8155     3916     3913 1
    8156     8384     8385 1
    8157     7103     7105 1
    8158     1813     1814 1
    8159     7346     7348 1
    8160    11180    11182 1
    8161    11261    11263 1
    8162     7265     7267 1
    8163     5486     5488 1
    8164     6143     6144 1
    8165     1617     1620 1
    8166     9101     9103 1
    8167    10883    10885 1
    8168     3014     3015 1
    8169     2938     2939 1
    8170     2341     2342 1
    8171     1817     1799 1
    8172     3529     3531 1
    8173     1751     1752 1
    8174    12431    12433 1
    8175    10298    10300 1
    8176    10352    10354 1
    8177     8543     8545 1
    8178    12539    12541 1
    8179     6356     6358 1
    8180     6464     6466 1
    8181    12269    12271 1
    8182      824      825 1
    8183    10190    10192 1
    8184     8300     8301 1
    8185     3504     3503 1
    8186     3244     3245 1
    8187     2166     2165 1
    8188    10856    10858 1
    8189     2576     2577 1
    8190     4709     4712 1
    8191     1931     1932 1
    8192     2502     2503 1
    8193     1857     1858 1
    8194     2928     2929 1
    8195     1905     1907 1
    8196     2308     2309 1
    8197     1669     1670 1
    8198     2314     2315 1
    8199     8888     8889 1
    8200    10805    10806 1
    8201     9050     9051 1
    8202     7133     7134 1
    8203    10886    10887 1
    8204     8969     8970 1
    8205     7052     7053 1
    8206     2830     2831 1
    8207     3310     3311 1
    8208     1341     1345 1
    8209    11774    11775 1
    8210    10697    10698 1
    8211      897      898 1
    8212     2017     2018 1
    8213     3532     3533 1
    8214     5609     5611 1
    8215      111      110 1
    8216      551      552 1
    8217      893      894 1
    8218    10676    10678 1
    8219     9665     9667 1
    8220    11582    11584 1
    8221     7667     7669 1
    8222    11825    11827 1
    8223    11906    11908 1
    8224     6155     6157 1
    8225     9989     9991 1
    8226     5699     5700 1
    8227     9587     9588 1
    8228     1904     1888 1
    8229     2552     2536 1
    8230     5861     5862 1
    8231    11612    11613 1
    8232     9695     9696 1
    8233     3154     3155 1
    8234    11504    11505 1
    8235    11342    11343 1
    8236     3970     3972 1
    8237     1255     1259 1
    8238     4720     4721 1
    8239     4775     4776 1
    8240     4792     4793 1
    8241     3181     3182 1
    8242     1266     1267 1
    8243     4474     4475 1
    8244      231      235 1
    8245     4978     4979 1
    8246     2301     2303 1
    8247     2452     2453 1
    8248     2290     2291 1
    8249    12458    12459 1
    8250     8624     8625 1
    8251     9704     9705 1
    8252     6869     6870 1
    8253     5360     5361 1
    8254     3585     3586 1
    8255     3253     3256 1
    8256     5870     5871 1
    8257    12620    12621 1
    8258    10703    10704 1
    8259     7814     7815 1
    8260     2631     2632 1
    8261     4117     4118 1
    8262     4120     4121 1
    8263     1548     1549 1
    8264     2622     2623 1
    8265     1757     1758 1
    8266     3391     3392 1
    8267     1606     1607 1
    8268     5078     5079 1
    8269     9827     9828 1
    8270    11510    11512 1
    8271     5759     5761 1
    8272     9917     9919 1
    8273     9755     9757 1
    8274     7838     7840 1
    8275     8000     8002 1
    8276     2924     2923 1
    8277     5921     5923 1
    8278    11348    11350 1
    8279     9593     9595 1
    8280     5450     5452 1
    8281     3643     3647 1
    8282     6605     6606 1
    8283       96       93 1
    8284     4973     4972 1
    8285    12374    12376 1
    8286     6431     6433 1
    8287    11804    11806 1
    8288    11642    11644 1
    8289     6215     6217 1
    8290    12344    12346 1
    8291    10427    10429 1
    8292    10589    10591 1
    8293     8348     8350 1
    8294     6593     6595 1
    8295     9797     9799 1
    8296     8960     8962 1
    8297    12065    12067 1
    8298     6314     6316 1
    8299     8231     8233 1
    8300    11876    11878 1
    8301    11228    11230 1
    8302     9149     9151 1
    8303     9959     9961 1
    8304    10877    10879 1
    8305     7916     7918 1
    8306     5261     5263 1
    8307     3861     3860 1
    8308     9866     9868 1
    8309    11978    11979 1
    8310    11816    11817 1
    8311    10061    10062 1
    8312     9359     9360 1
    8313     2421     2422 1
    8314     2204     2205 1
    8315    11438    11439 1
    8316     2250     2251 1
    8317     1776     1777 1
    8318     7604     7605 1
    8319     4690     4691 1
    8320     9437     9439 1
    8321     3322     3321 1
    8322     6893     6894 1
    8323     3980     3981 1
    8324     7802     7803 1
    8325     9881     9882 1
    8326    12014    12015 1
    8327     3421     3424 1
    8328    12176    12177 1
    8329    10259    10260 1
    8330     6263     6264 1
    8331      333      329 1
    8332     5885     5886 1
    8333     6047     6048 1
    8334     2276     2277 1
    8335     3169     3170 1
    8336     3391     3393 1
    8337    12581    12583 1
    8338     3710     3711 1
    8339     5223     5224 1
    8340     1054     1055 1
    8341      592      593 1
    8342     3641     3637 1
    8343     8933     8934 1
    8344     9662     9663 1
    8345     5828     5829 1
    8346    11579    11580 1
    8347    12767    12768 1
    8348     7178     7179 1
    8349     3125     3124 1
    8350      445      446 1
    8351     4601     4604 1
    8352     5732     5734 1
    8353     1648     1649 1
    8354     1745     1746 1
    8355    11147    11148 1
    8356     4873     4855 1
    8357     1524     1525 1
    8358     1958     1959 1
    8359     5537     5539 1
    8360      881      882 1
    8361      385      383 1
    8362     1678     1679 1
    8363     1620     1621 1
    8364     2898     2897 1
    8365     1387     1389 1
    8366     2085     2087 1
    8367     2168     2169 1
    8368     4529     4530 1
    8369      889      890 1
    8370    12485    12487 1
    8371     3388     3389 1
    8372    10922    10924 1
    8373     3535     3534 1
    8374      283      287 1
    8375     6422     6424 1
    8376     1126     1125 1
    8377     4529     4532 1
    8378     1192     1193 1
    8379     2029     2030 1
    8380     5447     5448 1
    8381     1680     1681 1
    8382     3623     3604 1
    8383     4142     4143 1
    8384     1900     1901 1
    8385     5777     5779 1
    8386     9611     9613 1
    8387     8855     8857 1
    8388     6776     6778 1
    8389    11528    11530 1
    8390    11690    11692 1
    8391     8693     8695 1
    8392     9773     9775 1
    8393     3086     3085 1
    8394     3595     3591 1
    8395     2655     2658 1
    8396     1273     1275 1
    8397     1302     1301 1
    8398     7595     7596 1
    8399     8081     8082 1
    8400     5678     5679 1
    8401     9512     9513 1
    8402    11429    11430 1
    8403     6002     6003 1
    8404     5151     5152 1
    8405     9836     9837 1
    8406     3889     3888 1
    8407     7433     7434 1
    8408     3789     3792 1
    8409      537      538 1
    8410     2219     2220 1
    8411     1574     1575 1
    8412     4539     4540 1
    8413     3367     3370 1
    8414     7958     7960 1
    8415    10037    10039 1
    8416     8120     8122 1
    8417    11954    11956 1
    8418     6365     6367 1
    8419      513      515 1
    8420     8042     8044 1
    8421    10730    10731 1
    8422    10199    10201 1
    8423     1962     1963 1
    8424      487      488 1
    8425     1497     1498 1
    8426     6434     6435 1
    8427      338      337 1
    8428      649      645 1
    8429     6929     6930 1
    8430     3353     3354 1
    8431      319      318 1
    8432      114      113 1
    8433    12749    12751 1
    8434      319      320 1
    8435     6308     6309 1
    8436    10871    10872 1
    8437     8954     8955 1
    8438     8225     8226 1
    8439     9791     9792 1
    8440    12221    12222 1
    8441    11222    11223 1
    8442     9953     9954 1
    8443     8036     8037 1
    8444    11870    11871 1
    8445    10490    10491 1
    8446     5738     5739 1
    8447     2915     2917 1
    8448      652      656 1
    8449      183      182 1
    8450     6065     6066 1
    8451     4568     4569 1
    8452     4561     4562 1
    8453     4717     4718 1
    8454      846      847 1
    8455     4196     4197 1
    8456     4283     4284 1
    8457     9263     9264 1
    8458      916      917 1
    8459      992      993 1
    8460     3045     3047 1
    8461     9020     9022 1
    8462    11018    11020 1
    8463    11153    11155 1
    8464    10775    10777 1
    8465     8777     8779 1
    8466     7022     7024 1
    8467    12692    12694 1
    8468     9317     9319 1
    8469    10613    10615 1
    8470    11396    11398 1
    8471       31       34 1
    8472     3752     3751 1
    8473     4571     4572 1
    8474     4285     4286 1
    8475     5144     5145 1
    8476     3866     3865 1
    8477     2889     2890 1
    8478     6491     6493 1
    8479     7085     7087 1
    8480    12755    12757 1
    8481     8489     8491 1
    8482     8840     8842 1
    8483    10244    10246 1
    8484    12917    12919 1
    8485    12512    12514 1
    8486     8408     8410 1
    8487    10325    10327 1
    8488     1319     1322 1
    8489       49       47 1
    8490    10631    10633 1
    8491     7562     7564 1
    8492     5564     5566 1
    8493     4884     4883 1
    8494     5069     5072 1
    8495       15       16 1
    8496     1854     1855 1
    8497     2028     2029 1
    8498      698      702 1
    8499    10019    10021 1
    8500     1715     1716 1
    8501     2360     2361 1
    8502     3578     3579 1
    8503     3781     3785 1
    8504    12782    12783 1
    8505      420      419 1
    8506     1091     1072 1
    8507     3289     3288 1
    8508     4205     4208 1
    8509      978      980 1
    8510     6281     6283 1
    8511     6053     6054 1
    8512     4513     4514 1
    8513      841      845 1
    8514      912      911 1
    8515     5162     5161 1
    8516       38       37 1
    8517     1101     1102 1
    8518     4353     4354 1
    8519      847      848 1
    8520     5190     5191 1
    8521     4625     4626 1
    8522      322      321 1
    8523    12068    12069 1
    8524    11465    11467 1
    8525     9548     9550 1
    8526    10628    10630 1
    8527    10466    10468 1
    8528     1081     1082 1
    8529     1005     1006 1
    8530     7631     7633 1
    8531     7469     7471 1
    8532     6632     6634 1
    8533     8756     8758 1
    8534      290      288 1
    8535     2190     2191 1
    8536     1533     1534 1
    8537     2181     2182 1
    8538     2133     2132 1
    8539     1543     1542 1
    8540    10862    10863 1
    8541     4318     4319 1
    8542     5189     5190 1
    8543      895      896 1
    8544     2954     2958 1
    8545      586      583 1
    8546      843      844 1
    8547     9728     9729 1
    8548     4226     4227 1
    8549     7976     7977 1
    8550     6770     6772 1
    8551     9488     9489 1
    8552     6383     6384 1
    8553    10217    10218 1
    8554     6761     6762 1
    8555    11684    11686 1
    8556     8678     8679 1
    8557    10055    10056 1
    8558     8138     8139 1
    8559      631      612 1
    8560     3051     3055 1
    8561     1033     1034 1
    8562     3818     3819 1
    8563     6887     6889 1
    8564    11591    11593 1
    8565      903      904 1
    8566     7676     7678 1
    8567     4369     4370 1
    8568     5840     5842 1
    8569     5597     5599 1
    8570     1447     1448 1
    8571     9674     9676 1
    8572     4607     4608 1
    8573     4179     4180 1
    8574     5912     5914 1
    8575     5306     5308 1
    8576     4209     4210 1
    8577      666      667 1
    8578     4510     4511 1
    8579     3120     3121 1
    8580      590      591 1
    8581        5        6 1
    8582     6563     6565 1
    8583    12191    12193 1
    8584    10274    10276 1
    8585    12029    12031 1
    8586     6359     6361 1
    8587    12272    12274 1
    8588     6278     6280 1
    8589    12434    12436 1
    8590    10355    10357 1
    8591     6575     6577 1
    8592     5624     5626 1
    8593     5975     5977 1
    8594     3112     3113 1
    8595     1485     1486 1
    8596     2317     2318 1
    8597     3846     3847 1
    8598     8933     8935 1
    8599     9662     9664 1
    8600    11579    11581 1
    8601     5828     5830 1
    8602    12767    12769 1
    8603     7178     7180 1
    8604     4385     4388 1
    8605    11972    11973 1
    8606    10766    10767 1
    8607    12683    12684 1
    8608      696      699 1
    8609     2033     2034 1
    8610     3446     3447 1
    8611      354      353 1
    8612     1878     1879 1
    8613     1875     1876 1
    8614     2147     2148 1
    8615     1063     1064 1
    8616     4684     4685 1
    8617      924      921 1
    8618     9242     9243 1
    8619       83       82 1
    8620     4109     4110 1
    8621     5540     5542 1
    8622     9233     9235 1
    8623     7661     7662 1
    8624    11576    11577 1
    8625     5582     5583 1
    8626     9659     9660 1
    8627    11657    11658 1
    8628     5825     5826 1
    8629     1794     1795 1
    8630    11174    11175 1
    8631     7340     7341 1
    8632     7259     7260 1
    8633     7097     7098 1
    8634     7502     7503 1
    8635     9095     9096 1
    8636    11093    11094 1
    8637     9338     9339 1
    8638    11255    11256 1
    8639     9176     9177 1
    8640     9302     9303 1
    8641    12218    12219 1
    8642     8939     8941 1
    8643     1132     1133 1
    8644     7385     7386 1
    8645    10937    10939 1
    8646     1080     1081 1
    8647      461      462 1
    8648    12773    12775 1
    8649     4406     4407 1
    8650     7184     7186 1
    8651     1922     1923 1
    8652     4424     4425 1
    8653     1968     1969 1
    8654     1551     1552 1
    8655     1317     1318 1
    8656     6386     6387 1
    8657     4565     4568 1
    8658     3137     3141 1
    8659     2848     2847 1
    8660     5345     5347 1
    8661     1781     1782 1
    8662     5465     5467 1
    8663     2606     2607 1
    8664     2085     2086 1
    8665     3115     3118 1
    8666     2297     2298 1
    8667     1808     1809 1
    8668     3700     3697 1
    8669     3443     3444 1
    8670      599      602 1
    8671    12884    12885 1
    8672     7214     7215 1
    8673    10967    10968 1
    8674     3352     3351 1
    8675     9212     9213 1
    8676     3315     3318 1
    8677    11048    11049 1
    8678     9131     9132 1
    8679    11129    11130 1
    8680    11159    11161 1
    8681     3397     3396 1
    8682     3326     3328 1
    8683     3542     3541 1
    8684     2013     2014 1
    8685     5714     5716 1
    8686    11303    11305 1
    8687     2678     2682 1
    8688     2121     2123 1
    8689      162      161 1
    8690     1839     1840 1
    8691     7922     7924 1
    8692     4606     4607 1
    8693     4178     4179 1
    8694     5095     5096 1
    8695     1359     1360 1
    8696     1283     1284 1
    8697     6758     6759 1
    8698     8594     8595 1
    8699    12590    12591 1
    8700      310      311 1
    8701    10754    10755 1
    8702     1695     1696 1
    8703     8513     8514 1
    8704    10511    10512 1
    8705     8675     8676 1
    8706     6677     6678 1
    8707     4277     4278 1
    8708     1411     1412 1
    8709     3053     3056 1
    8710      795      799 1
    8711     1807     1808 1
    8712     2296     2297 1
    8713    11063    11065 1
    8714     8984     8986 1
    8715     7229     7231 1
    8716    12818    12820 1
    8717     9065     9067 1
    8718     9227     9229 1
    8719     6905     6907 1
    8720     6986     6988 1
    8721     1217     1218 1
    8722    12728    12730 1
    8723     3673     3674 1
    8724     5073     5072 1
    8725     4483     4482 1
    8726     4428     4427 1
    8727     4425     4426 1
    8728     4217     4218 1
    8729     1239     1240 1
    8730     1500     1501 1
    8731     1725     1727 1
    8732     4225     4207 1
    8733     1371     1372 1
    8734     4909     4891 1
    8735     1917     1918 1
    8736     7142     7144 1
    8737     5381     5383 1
    8738     6224     6226 1
    8739     8897     8899 1
    8740    10814    10816 1
    8741     9059     9061 1
    8742    11651    11653 1
    8743       98      101 1
    8744    10049    10051 1
    8745     8132     8134 1
    8746     6377     6379 1
    8747    10211    10213 1
    8748     7970     7972 1
    8749     8672     8674 1
    8750     6755     6757 1
    8751     5540     5541 1
    8752    10751    10753 1
    8753     1119     1120 1
    8754     1117     1121 1
    8755      399      400 1
    8756     2752     2753 1
    8757     3571     3570 1
    8758     1043     1044 1
    8759    11060    11062 1
    8760     1657     1658 1
    8761     1929     1930 1
    8762     2574     2575 1
    8763     9803     9804 1
    8764     8495     8496 1
    8765     2217     2218 1
    8766     2385     2386 1
    8767     2685     2686 1
    8768     3320     3323 1
    8769     8927     8928 1
    8770    12923    12924 1
    8771     7172     7173 1
    8772    12761    12762 1
    8773     3264     3263 1
    8774     5118     5119 1
    8775      518      520 1
    8776     9719     9720 1
    8777    11474    11475 1
    8778    10097    10098 1
    8779     8018     8019 1
    8780     9557     9558 1
    8781     7640     7641 1
    8782     7478     7479 1
    8783     4002     4001 1
    8784     3759     3761 1
    8785     8180     8181 1
    8786     4306     4305 1
    8787     1403     1404 1
    8788     8312     8313 1
    8789     3476     3475 1
    8790     3880     3879 1
    8791    12224    12225 1
    8792     6311     6312 1
    8793      421      423 1
    8794     8228     8229 1
    8795     9956     9957 1
    8796    11873    11874 1
    8797     8039     8040 1
    8798     5960     5961 1
    8799    12035    12036 1
    8800     9794     9795 1
    8801     3065     3066 1
    8802     1417     1418 1
    8803     1119     1122 1
    8804     4081     4083 1
    8805     2444     2428 1
    8806    12839    12840 1
    8807     9005     9006 1
    8808    10733    10734 1
    8809    11084    11085 1
    8810     6926     6927 1
    8811     8735     8736 1
    8812     7007     7008 1
    8813     1328     1329 1
    8814     4840     4841 1
    8815    12569    12570 1
    8816     4446     4447 1
    8817     6623     6625 1
    8818     7400     7402 1
    8819    10898    10899 1
    8820      149      145 1
    8821    10292    10293 1
    8822     9515     9517 1
    8823    11432    11434 1
    8824     9596     9598 1
    8825     9272     9274 1
    8826    11351    11353 1
    8827     7436     7438 1
    8828    11513    11515 1
    8829     9434     9436 1
    8830     5681     5683 1
    8831     8252     8253 1
    8832     2999     3003 1
    8833     4876     4877 1
    8834     5236     5237 1
    8835    10916    10917 1
    8836     2475     2476 1
    8837     2090     2091 1
    8838     1934     1935 1
    8839     1591     1592 1
    8840     2450     2451 1
    8841     1805     1806 1
    8842    11165    11167 1
    8843     3033     3034 1
    8844     2357     2358 1
    8845     8474     8476 1
    8846    11768    11770 1
    8847     3487     3486 1
    8848      467      469 1
    8849      176      177 1
    8850     3654     3655 1
    8851     3240     3237 1
    8852     3331     3329 1
    8853    10610    10612 1
    8854    10772    10774 1
    8855     7856     7858 1
    8856    12851    12853 1
    8857     6101     6103 1
    8858     9017     9019 1
    8859    11852    11854 1
    8860     5939     5941 1
    8861     6938     6940 1
    8862    12689    12691 1
    8863     6821     6823 1
    8864     7925     7926 1
    8865     2763     2764 1
    8866     1509     1511 1
    8867     4251     4252 1
    8868      626      627 1
    8869     5186     5187 1
    8870     4587     4588 1
    8871     7148     7150 1
    8872    10505    10507 1
    8873     7625     7626 1
    8874     7544     7545 1
    8875    11378    11379 1
    8876     9461     9462 1
    8877     1873     1874 1
    8878    12812    12814 1
    8879     7706     7707 1
    8880     9380     9381 1
    8881     9542     9543 1
    8882    11459    11460 1
    8883     5041     5042 1
    8884     1281     1282 1
    8885     7748     7750 1
    8886     9827     9829 1
    8887      899      898 1
    8888     1703     1704 1
    8889     2348     2349 1
    8890     4040     4041 1
    8891     2845     2846 1
    8892     3239     3235 1
    8893     1109     1110 1
    8894     3477     3478 1
    8895    10958    10959 1
    8896      559      563 1
    8897     9095     9097 1
    8898    11255    11257 1
    8899     7097     7099 1
    8900     7340     7342 1
    8901     7259     7261 1
    8902     3525     3524 1
    8903    11174    11176 1
    8904     7502     7504 1
    8905     1997     1979 1
    8906    11093    11095 1
    8907    11567    11568 1
    8908     6608     6610 1
    8909     9179     9181 1
    8910    11033    11034 1
    8911     6470     6471 1
    8912     8387     8388 1
    8913     8549     8550 1
    8914    11384    11385 1
    8915    10304    10305 1
    8916     1545     1546 1
    8917     9305     9306 1
    8918     8360     8361 1
    8919     6281     6282 1
    8920     4057     4059 1
    8921     4035     4037 1
    8922     2098     2099 1
    8923     2312     2313 1
    8924     3361     3365 1
    8925     2712     2713 1
    8926     4462     4461 1
    8927    10556    10558 1
    8928    12737    12739 1
    8929     5444     5446 1
    8930     7388     7389 1
    8931     1625     1626 1
    8932     1897     1898 1
    8933      272      271 1
    8934     3489     3488 1
    8935     1441     1444 1
    8936     6797     6798 1
    8937    10712    10713 1
    8938     8795     8796 1
    8939     3707     3708 1
    8940     2711     2712 1
    8941     8714     8715 1
    8942    12710    12711 1
    8943    12548    12549 1
    8944     2787     2788 1
    8945     6878     6879 1
    8946    12920    12921 1
    8947      574      575 1
    8948     4735     4736 1
    8949     1261     1262 1
    8950     4521     4522 1
    8951     4677     4678 1
    8952      461      465 1
    8953    12686    12687 1
    8954    11390    11391 1
    8955     9311     9312 1
    8956    10607    10608 1
    8957    10850    10851 1
    8958     7016     7017 1
    8959    10769    10770 1
    8960    12848    12849 1
    8961     5720     5721 1
    8962      252      251 1
    8963     4727     4726 1
    8964     1019     1023 1
    8965     6089     6090 1
    8966     6413     6414 1
    8967     9707     9708 1
    8968     5873     5874 1
    8969    12164    12165 1
    8970     6251     6252 1
    8971    11624    11625 1
    8972     5324     5325 1
    8973     8330     8331 1
    8974     8168     8169 1
    8975     3466     3485 1
    8976    11975    11976 1
    8977     3794     3793 1
    8978      769      750 1
    8979     2224     2225 1
    8980     1949     1950 1
    8981     2594     2595 1
    8982     5321     5323 1
    8983     7919     7920 1
    8984      416      415 1
    8985     1675     1676 1
    8986    11219    11220 1
    8987       48       47 1
    8988     3557     3561 1
    8989      293      291 1
    8990     8393     8395 1
    8991     6734     6735 1
    8992    10415    10417 1
    8993    11066    11067 1
    8994     3510     3512 1
    8995     5942     5943 1
    8996       59       60 1
    8997     2631     2634 1
    8998     3604     3602 1
    8999     4861     4860 1
    9000     4095     4096 1
    9001     3242     3243 1
    9002     7127     7129 1
    9003     9044     9046 1
    9004     8882     8884 1
    9005     5105     5107 1
    9006     1105     1109 1
    9007     8963     8965 1
    9008     7046     7048 1
    9009    10880    10882 1
    9010    10799    10801 1
    9011     3597     3600 1
    9012     3274     3277 1
    9013     1008     1009 1
    9014     3720     3721 1
    9015     8864     8865 1
    9016     6785     6786 1
    9017     8621     8622 1
    9018    12455    12456 1
    9019     6866     6867 1
    9020     1530     1531 1
    9021     2569     2570 1
    9022     7406     7407 1
    9023    11240    11241 1
    9024     7163     7164 1
    9025     7253     7255 1
    9026     3225     3223 1
    9027     4277     4280 1
    9028     4330     4331 1
    9029     1097     1098 1
    9030     3767     3768 1
    9031      593      594 1
    9032     2027     2028 1
    9033     2393     2394 1
    9034     1748     1749 1
    9035     1416     1417 1
    9036     3676     3677 1
    9037     4537     4538 1
    9038     2373     2375 1
    9039      358      359 1
    9040      612      610 1
    9041      951      953 1
    9042     1027     1029 1
    9043      196      192 1
    9044     3742     3740 1
    9045     2922     2923 1
    9046        8       12 1
    9047     2630     2633 1
    9048     2301     2304 1
    9049     3747     3748 1
    9050     3105     3106 1
    9051      152      151 1
    9052    12611    12613 1
    9053     3687     3683 1
    9054     3062     3061 1
    9055     6941     6942 1
    9056    10625    10626 1
    9057     1724     1708 1
    9058     7397     7398 1
    9059     7316     7317 1
    9060     7154     7155 1
    9061    11231    11232 1
    9062     9152     9153 1
    9063    10988    10989 1
    9064     9395     9396 1
    9065      226      225 1
    9066     5372     5374 1
    9067     4417     4416 1
    9068     4573     4572 1
    9069     5831     5833 1
    9070     2705     2706 1
    9071     4241     4242 1
    9072        7        9 1
    9073     1218     1219 1
    9074     2869     2872 1
    9075     4514     4515 1
    9076      713      714 1
    9077     4517     4518 1
    9078      344      345 1
    9079     4683     4684 1
    9080     1264     1265 1
    9081     1188     1189 1
    9082     4955     4956 1
    9083     9116     9117 1
    9084     1026     1025 1
    9085    10289    10290 1
    9086     2265     2266 1
    9087     1856     1857 1
    9088     2501     2502 1
    9089     4397     4398 1
    9090     8702     8704 1
    9091     6320     6322 1
    9092     2251     2252 1
    9093     4554     4555 1
    9094     1147     1148 1
    9095     2205     2206 1
    9096    10115    10116 1
    9097     7223     7224 1
    9098     5176     5160 1
    9099     3516     3513 1
    9100     3514     3513 1
    9101     9239     9241 1
    9102     3470     3471 1
    9103     2359     2360 1
    9104     6944     6946 1
    9105     3510     3506 1
    9106     2636     2632 1
    9107      164      165 1
    9108     9293     9294 1
    9109    11210    11211 1
    9110     7295     7296 1
    9111     5621     5622 1
    9112    11291    11292 1
    9113     7376     7377 1
    9114     7457     7458 1
    9115     9137     9138 1
    9116      697      700 1
    9117       44       45 1
    9118     3293     3294 1
    9119     9236     9238 1
    9120     3183     3185 1
    9121    12266    12268 1
    9122     2661     2662 1
    9123     2509     2510 1
    9124     2069     2051 1
    9125     6572     6573 1
    9126       90       89 1
    9127      850      851 1
    9128     4166     4167 1
    9129     4194     4195 1
    9130     5007     5008 1
    9131     4322     4323 1
    9132     1247     1248 1
    9133     1353     1354 1
    9134     4661     4662 1
    9135     4077     4078 1
    9136      357      356 1
    9137      458      459 1
    9138      800      801 1
    9139     1087     1088 1
    9140      534      535 1
    9141    12347    12349 1
    9142     4389     4390 1
    9143    12068    12070 1
    9144      559      560 1
    9145     1961     1962 1
    9146    10169    10171 1
    9147      150      146 1
    9148      643      644 1
    9149     3472     3473 1
    9150      925      926 1
    9151     2079     2080 1
    9152      732      733 1
    9153     4072     4073 1
    9154      887      888 1
    9155     2877     2878 1
    9156    12494    12496 1
    9157     8822     8824 1
    9158    10901    10903 1
    9159    12899    12901 1
    9160     7067     7069 1
    9161    10658    10660 1
    9162    10820    10822 1
    9163     8903     8905 1
    9164     6824     6826 1
    9165    12656    12658 1
    9166    10163    10164 1
    9167     4647     4648 1
    9168     4774     4775 1
    9169     4219     4220 1
    9170      682      683 1
    9171     4502     4503 1
    9172     4919     4920 1
    9173     1141     1142 1
    9174     5813     5815 1
    9175     9998    10000 1
    9176     1102     1103 1
    9177    11915    11917 1
    9178    10160    10162 1
    9179     4477     4459 1
    9180     9647     9649 1
    9181     6164     6166 1
    9182      804      805 1
    9183    11726    11728 1
    9184     4225     4226 1
    9185     5402     5404 1
    9186     4212     4213 1
    9187      253      252 1
    9188     2197     2198 1
    9189     1700     1701 1
    9190     2189     2190 1
    9191     2562     2563 1
    9192     4606     4605 1
    9193    10220    10222 1
    9194    12893    12895 1
    9195    10058    10060 1
    9196     8141     8143 1
    9197     7979     7981 1
    9198     1337     1335 1
    9199    10976    10978 1
    9200    12128    12130 1
    9201    10373    10375 1
    9202     8294     8296 1
    9203     6539     6541 1
    9204     3131     3133 1
    9205     2974     2973 1
    9206     3305     3306 1
    9207     6959     6960 1
    9208      242      238 1
    9209     3673     3672 1
    9210    12686    12688 1
    9211     9311     9313 1
    9212    10607    10609 1
    9213    10769    10771 1
    9214    10850    10852 1
    9215     7016     7018 1
    9216    12848    12850 1
    9217    11390    11392 1
    9218     1951     1952 1
    9219     5558     5560 1
    9220     2602     2603 1
    9221     3712     3711 1
    9222     8687     8689 1
    9223     3592     3591 1
    9224    11972    11974 1
    9225     3805     3807 1
    9226     2100     2099 1
    9227     2575     2576 1
    9228     1930     1931 1
    9229     2867     2868 1
    9230     5684     5686 1
    9231     2545     2546 1
    9232     1686     1687 1
    9233    10604    10605 1
    9234    12845    12846 1
    9235    11846    11847 1
    9236     6095     6096 1
    9237     9011     9012 1
    9238     3432     3431 1
    9239     8924     8925 1
    9240     6932     6933 1
    9241     7850     7851 1
    9242     5933     5934 1
    9243     3561     3559 1
    9244     9443     9444 1
    9245      776      777 1
    9246     4672     4671 1
    9247     4016     4018 1
    9248     5672     5673 1
    9249     1525     1526 1
    9250     8414     8416 1
    9251     2192     2176 1
    9252     5693     5694 1
    9253     9689     9690 1
    9254     5855     5856 1
    9255    11498    11499 1
    9256    11336    11337 1
    9257     9257     9258 1
    9258     9581     9582 1
    9259    11606    11607 1
    9260     9419     9420 1
    9261     8033     8034 1
    9262     9506     9508 1
    9263     7427     7429 1
    9264     8195     8196 1
    9265    10112    10113 1
    9266    11423    11425 1
    9267     9950     9951 1
    9268    11693    11695 1
    9269    11948    11949 1
    9270    12110    12111 1
    9271     1434     1438 1
    9272    10802    10804 1
    9273     3662     3663 1
    9274     3292     3293 1
    9275       88       89 1
    9276     4665     4666 1
    9277     1250     1254 1
    9278     2227     2228 1
    9279     5489     5491 1
    9280     2383     2384 1
    9281     2505     2506 1
    9282     2016     2017 1
    9283     1646     1647 1
    9284     3582     3581 1
    9285     1889     1890 1
    9286     2291     2292 1
    9287    12242    12244 1
    9288     2795     2776 1
    9289     2121     2124 1
    9290     2337     2340 1
    9291     9995     9996 1
    9292     9644     9645 1
    9293     6161     6162 1
    9294     2171     2172 1
    9295     2639     2641 1
    9296    11831    11832 1
    9297     9887     9888 1
    9298     3355     3354 1
    9299    11912    11913 1
    9300     3902     3901 1
    9301     3976     3973 1
    9302     3851     3853 1
    9303     3827     3830 1
    9304    12617    12618 1
    9305     3566     3567 1
    9306     8276     8278 1
    9307     6611     6613 1
    9308     3979     3978 1
    9309     4464     4465 1
    9310     5115     5116 1
    9311      329      331 1
    9312     6620     6621 1
    9313     1249     1250 1
    9314     5639     5641 1
    9315       22       21 1
    9316     5399     5400 1
    9317     2108     2109 1
    9318     2270     2271 1
    9319     5218     5219 1
    9320     2891     2892 1
    9321     4573     4574 1
    9322     9287     9289 1
    9323     7370     7372 1
    9324     5615     5617 1
    9325     3580     3581 1
    9326    10124    10126 1
    9327    12203    12205 1
    9328    11204    11206 1
    9329     9980     9982 1
    9330     9440     9442 1
    9331     7523     7525 1
    9332     6146     6148 1
    9333     1084     1085 1
    9334     7685     7687 1
    9335    11897    11899 1
    9336    10142    10144 1
    9337     3717     3718 1
    9338    11357    11359 1
    9339     5894     5895 1
    9340     9890     9891 1
    9341     6056     6057 1
    9342    11834    11835 1
    9343    10079    10080 1
    9344     5206     5207 1
    9345     7811     7812 1
    9346    11996    11997 1
    9347     4784     4781 1
    9348     4683     4682 1
    9349      186      185 1
    9350     2589     2592 1
    9351     1495     1496 1
    9352     5507     5508 1
    9353     4069     4070 1
    9354     3722     3723 1
    9355     4988     4989 1
    9356     7004     7006 1
    9357      961      962 1
    9358      478      479 1
    9359      759      760 1
    9360     1037     1038 1
    9361     3375     3377 1
    9362     4266     4267 1
    9363     1506     1507 1
    9364    12662    12664 1
    9365     1209     1213 1
    9366     7715     7717 1
    9367      223      222 1
    9368     4929     4930 1
    9369     2565     2566 1
    9370     5201     5202 1
    9371     2675     2676 1
    9372     2354     2355 1
    9373     2921     2922 1
    9374     4556     4557 1
    9375     1920     1921 1
    9376       52       51 1
    9377     9053     9055 1
    9378     2357     2339 1
    9379     3788     3807 1
    9380    12233    12234 1
    9381    11969    11970 1
    9382     3143     3147 1
    9383     3987     3986 1
    9384     3397     3398 1
    9385     3970     3966 1
    9386     4127     4126 1
    9387     2044     2043 1
    9388    11126    11128 1
    9389     2769     2770 1
    9390     1128     1129 1
    9391     3151     3152 1
    9392    10469    10470 1
    9393    10631    10632 1
    9394    10550    10551 1
    9395     8633     8634 1
    9396    12467    12468 1
    9397     2879     2880 1
    9398     3398     3399 1
    9399    12305    12306 1
    9400    12386    12387 1
    9401     9836     9838 1
    9402       31       32 1
    9403     1750     1751 1
    9404     7358     7359 1
    9405     1176     1175 1
    9406      178      177 1
    9407     4888     4872 1
    9408     4946     4947 1
    9409     4732     4733 1
    9410     4301     4302 1
    9411      981      983 1
    9412     1103     1104 1
    9413     5192     5193 1
    9414     1445     1446 1
    9415      370      369 1
    9416     4541     4542 1
    9417     2747     2750 1
    9418    11786    11787 1
    9419    10532    10534 1
    9420    10289    10291 1
    9421     6455     6457 1
    9422     5453     5454 1
    9423     7238     7240 1
    9424    11072    11074 1
    9425    10247    10248 1
    9426     6698     6700 1
    9427     9074     9076 1
    9428    10451    10453 1
    9429     5510     5512 1
    9430     2796     2797 1
    9431     3159     3160 1
    9432     4861     4862 1
    9433     1314     1315 1
    9434     9893     9895 1
    9435     7814     7816 1
    9436    11837    11839 1
    9437    10001    10003 1
    9438    11918    11920 1
    9439     6167     6169 1
    9440     5816     5818 1
    9441     5897     5899 1
    9442     4598     4599 1
    9443     4155     4156 1
    9444     8222     8223 1
    9445     4326     4327 1
    9446     1082     1083 1
    9447     4824     4825 1
    9448     1006     1007 1
    9449     4432     4433 1
    9450     5077     5078 1
    9451     4750     4749 1
    9452     3346     3345 1
    9453     7040     7041 1
    9454    10793    10794 1
    9455     7310     7311 1
    9456     2573     2574 1
    9457       41       40 1
    9458       72       73 1
    9459    11696    11697 1
    9460     8699     8700 1
    9461    11534    11535 1
    9462     9617     9618 1
    9463     6782     6783 1
    9464     8861     8862 1
    9465     4817     4820 1
    9466     7193     7194 1
    9467       88       87 1
    9468      661      659 1
    9469     1679     1680 1
    9470     3965     3969 1
    9471     2986     2985 1
    9472      267      266 1
    9473    10460    10462 1
    9474     2445     2448 1
    9475     1734     1733 1
    9476     2379     2378 1
    9477     3420     3418 1
    9478     6491     6492 1
    9479     4591     4592 1
    9480      343      342 1
    9481     4964     4965 1
    9482     2689     2690 1
    9483     9206     9208 1
    9484     9449     9451 1
    9485     1581     1582 1
    9486     7694     7696 1
    9487    10961    10963 1
    9488    12878    12880 1
    9489     9368     9370 1
    9490     7532     7534 1
    9491     6389     6391 1
    9492     8306     8308 1
    9493    12140    12142 1
    9494     7118     7120 1
    9495     8873     8875 1
    9496    11789    11791 1
    9497     9035     9037 1
    9498     7145     7147 1
    9499     6200     6202 1
    9500     1866     1865 1
    9501     6839     6841 1
    9502     6236     6238 1
    9503     2595     2596 1
    9504     4945     4927 1
    9505     4165     4166 1
    9506      697      698 1
    9507     1853     1835 1
    9508      729      730 1
    9509     1007     1008 1
    9510     9812     9813 1
    9511     5288     5289 1
    9512     9974     9975 1
    9513     8759     8760 1
    9514    12053    12054 1
    9515    11891    11892 1
    9516     8057     8058 1
    9517     6518     6519 1
    9518     8435     8436 1
    9519     6071     6073 1
    9520     9392     9394 1
    9521     2257     2258 1
    9522     4933     4934 1
    9523     4007     4005 1
    9524     2260     2261 1
    9525      591      592 1
    9526    12083    12085 1
    9527    11744    11745 1
    9528     1157     1161 1
    9529       78       77 1
    9530      433      432 1
    9531     4707     4708 1
    9532     4481     4482 1
    9533     1541     1542 1
    9534     2186     2187 1
    9535     2517     2519 1
    9536     4054     4051 1
    9537     3091     3094 1
    9538     3409     3407 1
    9539     9401     9403 1
    9540     7160     7162 1
    9541    11237    11239 1
    9542     3275     3276 1
    9543     7322     7324 1
    9544     3000     3004 1
    9545    10994    10996 1
    9546     7403     7405 1
    9547     9158     9160 1
    9548    12629    12630 1
    9549     3951     3950 1
    9550    12308    12309 1
    9551     5693     5695 1
    9552     5855     5857 1
    9553    11498    11500 1
    9554    11336    11338 1
    9555     9257     9259 1
    9556     9581     9583 1
    9557    11606    11608 1
    9558     9419     9421 1
    9559     9689     9691 1
    9560    10028    10029 1
    9561    11522    11524 1
    9562     6659     6661 1
    9563    12167    12168 1
    9564    12410    12411 1
    9565     6335     6336 1
    9566    10331    10332 1
    9567     4853     4855 1
    9568    10250    10251 1
    9569     1976     1960 1
    9570     6254     6255 1
    9571    12248    12249 1
    9572    12005    12006 1
    9573     6737     6738 1
    9574     8546     8548 1
    9575    12488    12489 1
    9576     3835     3836 1
    9577     5249     5250 1
    9578     2290     2289 1
    9579     8810     8811 1
    9580      381      385 1
    9581     9314     9315 1
    9582     2237     2238 1
    9583     4051     4052 1
    9584     2081     2082 1
    9585     5177     5179 1
    9586    11393    11394 1
    9587      553      557 1
    9588     7559     7560 1
    9589     5723     5724 1
    9590    11312    11313 1
    9591     1650     1651 1
    9592     2907     2911 1
    9593      352      351 1
    9594     3258     3259 1
    9595     2989     2990 1
    9596     1539     1540 1
    9597        4        1 1
    9598     5780     5781 1
    9599     4310     4311 1
    9600      375      378 1
    9601    12599    12601 1
    9602      635      636 1
    9603     3506     3505 1
    9604     4255     4256 1
    9605     1194     1195 1
    9606     4900     4901 1
    9607    11267    11268 1
    9608     2881     2882 1
    9609    12152    12154 1
    9610    10991    10993 1
    9611     2745     2746 1
    9612     2393     2375 1
    9613     1919     1920 1
    9614     2465     2466 1
    9615     4433     4434 1
    9616      543      544 1
    9617    12215    12216 1
    9618     3964     3963 1
    9619    12926    12928 1
    9620     2035     2036 1
    9621     2142     2143 1
    9622     2326     2327 1
    9623     1681     1682 1
    9624      879      880 1
    9625     2066     2067 1
    9626     2763     2767 1
    9627     4093     4092 1
    9628     4023     4024 1
    9629     1433     1437 1
    9630     3643     3644 1
    9631     7568     7570 1
    9632      126      127 1
    9633     3864     3863 1
    9634     2993     2996 1
    9635      263      244 1
    9636    12722    12723 1
    9637     5783     5784 1
    9638     2984     2985 1
    9639     5182     5183 1
    9640     2990     2991 1
    9641    11957    11959 1
    9642    12557    12558 1
    9643     6806     6807 1
    9644     6050     6051 1
    9645     9884     9885 1
    9646     5888     5889 1
    9647     8723     8724 1
    9648     6968     6969 1
    9649     7805     7806 1
    9650    12719    12720 1
    9651     1026     1024 1
    9652     5203     5204 1
    9653     4772     4773 1
    9654     4150     4151 1
    9655     1139     1140 1
    9656      835      838 1
    9657     1124     1125 1
    9658      248      249 1
    9659     2173     2174 1
    9660     9413     9415 1
    9661     1341     1342 1
    9662      547      548 1
    9663     4967     4968 1
    9664     3967     3964 1
    9665     4277     4279 1
    9666    12482    12483 1
    9667     2769     2773 1
    9668    10496    10498 1
    9669     8660     8662 1
    9670     6743     6745 1
    9671    10739    10741 1
    9672     6662     6664 1
    9673    12575    12577 1
    9674     2934     2935 1
    9675     8498     8500 1
    9676     8579     8581 1
    9677     4479     4480 1
    9678      491      494 1
    9679    12383    12385 1
    9680     8303     8305 1
    9681    12137    12139 1
    9682    10382    10384 1
    9683    11300    11302 1
    9684     1637     1619 1
    9685     7466     7468 1
    9686     6548     6550 1
    9687     7304     7306 1
    9688     5789     5790 1
    9689     1508     1492 1
    9690     5054     5055 1
    9691     3577     3558 1
    9692     6680     6681 1
    9693     2657     2638 1
    9694      290      289 1
    9695     3894     3895 1
    9696    11492    11493 1
    9697     5849     5850 1
    9698     9575     9576 1
    9699     5687     5688 1
    9700    11330    11331 1
    9701    11600    11601 1
    9702     4780     4764 1
    9703     9251     9252 1
    9704     9413     9414 1
    9705     2777     2779 1
    9706     5228     5227 1
    9707     6590     6592 1
    9708     6602     6604 1
    9709     6953     6954 1
    9710    11798    11799 1
    9711     6209     6210 1
    9712    11636    11637 1
    9713     3315     3319 1
    9714    12752    12753 1
    9715     5468     5470 1
    9716     4405     4387 1
    9717     2789     2790 1
    9718     2695     2696 1
    9719     3189     3190 1
    9720     5053     5035 1
    9721     1894     1895 1
    9722     5348     5350 1
    9723     5588     5590 1
    9724     1367     1348 1
    9725     2912     2914 1
    9726     6437     6438 1
    9727      159      160 1
    9728    11273    11274 1
    9729     4357     4358 1
    9730      285      283 1
    9731     5033     5034 1
    9732     3589     3588 1
    9733     2263     2264 1
    9734     2040     2041 1
    9735    11006    11008 1
    9736     4725     4726 1
    9737    11783    11785 1
    9738    11864    11866 1
    9739     5951     5953 1
    9740     6113     6115 1
    9741     7787     7789 1
    9742     1065     1067 1
    9743     5312     5314 1
    9744     7949     7951 1
    9745     6032     6034 1
    9746     7868     7870 1
    9747      667      668 1
    9748     3202     3201 1
    9749    12701    12702 1
    9750     3582     3583 1
    9751    10982    10983 1
    9752     2663     2664 1
    9753     1860     1861 1
    9754     2074     2075 1
    9755      651      655 1
    9756     3390     3389 1
    9757     9725     9726 1
    9758     9563     9564 1
    9759     2121     2122 1
    9760     7646     7647 1
    9761    10103    10104 1
    9762     9941     9942 1
    9763    11480    11481 1
    9764     8024     8025 1
    9765     7484     7485 1
    9766     8186     8187 1
    9767     8471     8472 1
    9768     3644     3648 1
    9769     9137     9139 1
    9770    10076    10077 1
    9771     5170     5171 1
    9772      633      634 1
    9773    11813    11815 1
    9774      247      245 1
    9775     2839     2842 1
    9776     8270     8272 1
    9777    10919    10920 1
    9778     3868     3867 1
    9779     6572     6574 1
    9780     3619     3620 1
    9781      539      520 1
    9782    10925    10927 1
    9783     5040     5041 1
    9784     4884     4885 1
    9785     8819     8821 1
    9786     4658     4659 1
    9787     9128     9129 1
    9788     2126     2127 1
    9789      197      201 1
    9790     2567     2566 1
    9791     4506     4505 1
    9792     4717     4716 1
    9793      302      301 1
    9794     2813     2809 1
    9795     4596     4597 1
    9796     6338     6340 1
    9797     1590     1591 1
    9798       69       68 1
    9799     3996     3997 1
    9800     5336     5337 1
    9801    12143    12145 1
    9802    11630    11632 1
    9803    11792    11794 1
    9804     6203     6205 1
    9805     6392     6394 1
    9806     8309     8311 1
    9807     8147     8149 1
    9808     6230     6232 1
    9809     6068     6070 1
    9810     4709     4711 1
    9811    10163    10165 1
    9812    11849    11850 1
    9813      467      468 1
    9814     4534     4535 1
    9815     8783     8785 1
    9816     9323     9325 1
    9817    12860    12862 1
    9818    12698    12700 1
    9819     9026     9028 1
    9820     7028     7030 1
    9821    11321    11323 1
    9822     5570     5572 1
    9823    10781    10783 1
    9824     4830     4831 1
    9825     7760     7762 1
    9826     4185     4186 1
    9827     4833     4834 1
    9828      390      389 1
    9829     1549     1550 1
    9830     1561     1562 1
    9831     4121     4122 1
    9832     2417     2418 1
    9833     4284     4285 1
    9834     1688     1672 1
    9835      944      945 1
    9836      115      114 1
    9837     2206     2207 1
    9838    10940    10942 1
    9839     8942     8944 1
    9840    12776    12778 1
    9841     7187     7189 1
    9842     3069     3070 1
    9843     2747     2748 1
    9844     1945     1946 1
    9845     2815     2819 1
    9846     3735     3739 1
    9847     3674     3675 1
    9848     2052     2053 1
    9849     1105     1108 1
    9850     2961     2963 1
    9851     2470     2471 1
    9852     2885     2887 1
    9853     3018     3019 1
    9854     2244     2243 1
    9855     3999     3998 1
    9856     5013     5014 1
    9857      122      121 1
    9858     7043     7044 1
    9859     3572     3571 1
    9860      206      205 1
    9861     9200     9201 1
    9862    10955    10956 1
    9863    11036    11037 1
    9864     9119     9120 1
    9865    11117    11118 1
    9866    12872    12873 1
    9867     7202     7203 1
    9868     5996     5998 1
    9869     7589     7591 1
    9870     4097     4099 1
    9871     1782     1783 1
    9872     2947     2948 1
    9873     9815     9816 1
    9874     6449     6450 1
    9875     7232     7233 1
    9876    12821    12822 1
    9877    12524    12525 1
    9878    10283    10284 1
    9879     6692     6693 1
    9880     8987     8988 1
    9881     6989     6990 1
    9882    12281    12282 1
    9883    10526    10527 1
    9884     9761     9762 1
    9885    12908    12910 1
    9886    10370    10372 1
    9887     6536     6538 1
    9888    12206    12208 1
    9889     7076     7078 1
    9890     9923     9924 1
    9891    12125    12127 1
    9892     8291     8293 1
    9893    10667    10669 1
    9894     4828     4829 1
    9895      220      219 1
    9896     5999     6000 1
    9897     1817     1818 1
    9898      939      940 1
    9899     2416     2417 1
    9900     1238     1239 1
    9901      863      864 1
    9902     4340     4341 1
    9903     4985     4986 1
    9904      818      819 1
    9905     4815     4816 1
    9906     2768     2771 1
    9907       66       67 1
    9908     9932     9934 1
    9909    12365    12367 1
    9910     2905     2906 1
    9911     2261     2262 1
    9912     5393     5395 1
    9913     3631     3630 1
    9914     3961     3959 1
    9915     5069     5070 1
    9916     4056     4059 1
    9917     2525     2526 1
    9918     1874     1875 1
    9919     1880     1881 1
    9920     2749     2730 1
    9921     1065     1068 1
    9922     9023     9024 1
    9923     5945     5946 1
    9924    11858    11859 1
    9925     6107     6108 1
    9926    10778    10779 1
    9927    10616    10617 1
    9928     5909     5911 1
    9929     4028     4029 1
    9930     7862     7863 1
    9931    12695    12696 1
    9932    10487    10488 1
    9933     5513     5514 1
    9934     8690     8692 1
    9935     3452     3451 1
    9936    11531    11533 1
    9937    12869    12871 1
    9938     8573     8574 1
    9939     2372     2356 1
    9940     2408     2392 1
    9941     3552     3556 1
    9942     1473     1476 1
    9943     1940     1924 1
    9944     3299     3300 1
    9945      273      272 1
    9946      926      929 1
    9947     3425     3426 1
    9948     1457     1459 1
    9949     5062     5061 1
    9950     6482     6483 1
    9951    10316    10317 1
    9952     6104     6105 1
    9953     9197     9199 1
    9954    10952    10954 1
    9955     6362     6364 1
    9956     6551     6553 1
    9957     8117     8119 1
    9958     7955     7957 1
    9959    11855    11856 1
    9960    10223    10225 1
    9961     3004     3006 1
    9962     4832     4833 1
    9963     4133     4135 1
    9964     8831     8833 1
    9965     5154     5155 1
    9966     3366     3369 1
    9967     8345     8346 1
    9968     2213     2195 1
    9969     1061     1059 1
    9970     4811     4812 1
    9971     3881     3882 1
    9972     1361     1362 1
    9973      448      449 1
    9974      802      803 1
    9975     4452     4453 1
    9976     3361     3364 1
    9977     7499     7501 1
    9978     9335     9337 1
    9979    11171    11173 1
    9980     7094     7096 1
    9981     9092     9094 1
    9982     7337     7339 1
    9983     3697     3698 1
    9984    11252    11254 1
    9985    11090    11092 1
    9986     7256     7258 1
    9987     1235     1236 1
    9988     1705     1706 1
    9989     2974     2975 1
    9990     1693     1694 1
    9991     1913     1914 1
    9992     3306     3307 1
    9993     3679     3680 1
    9994    12833    12835 1
    9995     2993     2995 1
    9996     2490     2489 1
    9997      180      179 1
    9998     4333     4334 1
    9999     2345     2346 1
   10000     3196     3197 1
   10001     1418     1419 1
   10002      865      866 1
   10003     4049     4050 1
   10004     1421     1422 1
   10005     8249     8251 1
   10006    11705    11707 1
   10007    11543    11545 1
   10008     5792     5794 1
   10009     9626     9628 1
   10010     6332     6334 1
   10011     9788     9790 1
   10012     5309     5311 1
   10013     9320     9322 1
   10014     2304     2305 1
   10015    11156    11158 1
   10016    11399    11401 1
   10017    11318    11320 1
   10018     5567     5569 1
   10019     7565     7567 1
   10020     5729     5731 1
   10021     8441     8443 1
   10022     8705     8707 1
   10023     9014     9016 1
   10024    11309    11311 1
   10025      254      253 1
   10026      346      345 1
   10027     2685     2687 1
   10028     8858     8860 1
   10029     6509     6511 1
   10030     1853     1854 1
   10031    10664    10665 1
   10032     2075     2076 1
   10033    12662    12663 1
   10034     7073     7074 1
   10035    10907    10908 1
   10036    10826    10827 1
   10037     8909     8910 1
   10038     6830     6831 1
   10039    12905    12906 1
   10040    12500    12501 1
   10041     5033     5035 1
   10042     2806     2807 1
   10043     7418     7419 1
   10044     9578     9579 1
   10045    11495    11496 1
   10046    11333    11334 1
   10047     9254     9255 1
   10048     5663     5664 1
   10049     9416     9417 1
   10050     9497     9498 1
   10051     1941     1943 1
   10052    11414    11415 1
   10053     4384     4368 1
   10054     2612     2613 1
   10055      501      502 1
   10056     5051     5050 1
   10057     2793     2796 1
   10058     4468     4469 1
   10059     4945     4946 1
   10060      716      717 1
   10061     4300     4301 1
   10062      640      641 1
   10063     5119     5120 1
   10064      220      221 1
   10065    10301    10302 1
   10066    11381    11382 1
   10067     9464     9465 1
   10068     4186     4187 1
   10069     7709     7710 1
   10070    12542    12543 1
   10071     7547     7548 1
   10072     4189     4171 1
   10073     6467     6468 1
   10074     9710     9712 1
   10075     5103     5104 1
   10076     3689     3691 1
   10077     2935     2936 1
   10078      954      955 1
   10079      679      680 1
   10080      688      689 1
   10081    10703    10705 1
   10082    12458    12460 1
   10083     9704     9706 1
   10084     6869     6871 1
   10085     5870     5872 1
   10086    11621    11623 1
   10087    12620    12622 1
   10088     5360     5362 1
   10089     5246     5247 1
   10090     1368     1369 1
   10091     5237     5238 1
   10092     2896     2897 1
   10093     3889     3890 1
   10094     2972     2973 1
   10095     2203     2204 1
   10096     2469     2470 1
   10097     4924     4908 1
   10098      473      477 1
   10099     1087     1086 1
   10100      295      296 1
   10101     3754     3755 1
   10102     3311     3312 1
   10103      347      348 1
   10104    12731    12732 1
   10105     3575     3576 1
   10106     1850     1851 1
   10107     2269     2270 1
   10108     2495     2496 1
   10109     2861     2864 1
   10110     3684     3683 1
   10111     5161     5143 1
   10112      737      741 1
   10113      328      331 1
   10114     2292     2293 1
   10115     6287     6289 1
   10116     8921     8922 1
   10117     2072     2073 1
   10118     3429     3430 1
   10119      139      143 1
   10120     4154     4155 1
   10121       25       24 1
   10122     1370     1371 1
   10123      780      781 1
   10124    12176    12178 1
   10125    10259    10261 1
   10126    12014    12016 1
   10127     7802     7804 1
   10128     9881     9883 1
   10129     6263     6265 1
   10130     5885     5887 1
   10131    10478    10479 1
   10132     9722     9723 1
   10133    10640    10641 1
   10134     9560     9561 1
   10135     7643     7644 1
   10136    11477    11478 1
   10137     7481     7482 1
   10138     3480     3481 1
   10139    12395    12396 1
   10140     6644     6645 1
   10141     2631     2633 1
   10142     1961     1943 1
   10143     3367     3368 1
   10144      927      928 1
   10145     1269     1270 1
   10146     1956     1957 1
   10147      637      638 1
   10148     3373     3374 1
   10149     4743     4744 1
   10150     6947     6948 1
   10151     4925     4928 1
   10152     2977     2980 1
   10153     3802     3801 1
   10154     2724     2728 1
   10155     4107     4108 1
   10156     4657     4658 1
   10157      329      332 1
   10158     3669     3650 1
   10159     3594     3591 1
   10160     3215     3216 1
   10161     1829     1830 1
   10162     3860     3859 1
   10163     6650     6652 1
   10164    10484    10486 1
   10165    10646    10648 1
   10166     7487     7489 1
   10167    11483    11485 1
   10168     9728     9730 1
   10169     7649     7651 1
   10170     9566     9568 1
   10171     2523     2522 1
   10172     4402     4403 1
   10173     1357     1358 1
   10174     1065     1066 1
   10175     1632     1631 1
   10176     4882     4883 1
   10177     5327     5329 1
   10178      789      790 1
   10179     4646     4647 1
   10180     4218     4219 1
   10181     4938     4939 1
   10182     5210     5211 1
   10183     4046     4047 1
   10184     2851     2852 1
   10185     4293     4294 1
   10186     1885     1886 1
   10187      565      566 1
   10188     6644     6646 1
   10189    10526    10528 1
   10190     6908     6910 1
   10191    11066    11068 1
   10192     6449     6451 1
   10193     7232     7234 1
   10194    12821    12823 1
   10195    10283    10285 1
   10196     6692     6694 1
   10197     3276     3280 1
   10198     8987     8989 1
   10199    12200    12202 1
   10200     8627     8628 1
   10201     4997     5000 1
   10202     3342     3343 1
   10203    10028    10030 1
   10204     2931     2933 1
   10205     5579     5580 1
   10206     2259     2260 1
   10207     2039     2040 1
   10208     7658     7659 1
   10209    11762    11763 1
   10210     7928     7929 1
   10211     1614     1615 1
   10212     1767     1768 1
   10213     7766     7767 1
   10214     6011     6012 1
   10215     8189     8191 1
   10216     4853     4856 1
   10217     2520     2521 1
   10218     2358     2359 1
   10219     2364     2365 1
   10220     3787     3788 1
   10221     5258     5259 1
   10222     3612     3613 1
   10223     6404     6405 1
   10224    12284    12285 1
   10225     2667     2668 1
   10226     8450     8451 1
   10227     6371     6372 1
   10228     7964     7965 1
   10229     8126     8127 1
   10230    10529    10530 1
   10231     4112     4113 1
   10232    10043    10044 1
   10233     1760     1744 1
   10234     4848     4849 1
   10235      499      500 1
   10236    12227    12228 1
   10237     2625     2626 1
   10238     5963     5964 1
   10239     6668     6670 1
   10240     1349     1351 1
@<TRIPOS>SUBSTRUCTURE
       1 RES             1 RESIDUE    0 **** ROOT      0
