@<TRIPOS>MOLECULE
RES
46 45 1 0 1
SMALL
NO_CHARGES
@<TRIPOS>CRYSIN
   11.0169    12.7145    31.2761    90.0000    90.0000    90.0000  1  1
@<TRIPOS>ATOM
       1 N            0.0000     0.0000     0.0000 N             1 RES     
       2 C            0.8868    -1.1207     0.0505 C             1 RES     
       3 C           -1.1120    -0.0899     0.7399 C             1 RES     
       4 C            0.6823     1.0877     0.3197 C             1 RES     
       5 CH2         -0.3251     0.2384    -1.3327 CH2           1 RES     
       6 CH2         -1.1148    -1.0397    -1.6706 CH2           1 RES     
       7 P           -0.4248    -1.6484    -3.9917 P             1 RES     
       8 O           -0.8733    -1.6086    -5.5270 O             1 RES     
       9 O           -1.5642    -0.9853    -3.0850 O             1 RES     
      10 O           -0.2580    -3.1903    -3.5984 O             1 RES     
      11 O            0.9178    -0.7853    -3.8795 O             1 RES     
      12 CH2          0.2052    -2.2305    -6.3364 CH2           1 RES     
      13 CH2         -0.5763    -0.7192    -7.7960 CH2           1 RES     
      14 CH2         -0.1920    -2.2102    -7.8242 CH2           1 RES     
      15 C           -0.0000    -0.0000    -9.7435 C             1 RES     
      16 O           -1.0267    -0.5950   -10.0670 O             1 RES     
      17 O            0.5283     0.0826    -8.3420 O             1 RES     
      18 CH2          0.7794     0.3578   -10.8279 CH2           1 RES     
      19 CH2         -0.0925    -0.2156   -11.9604 CH2           1 RES     
      20 CH2          0.6829    -0.1507   -13.2893 CH2           1 RES     
      21 CH2         -0.1890    -0.7240   -14.4218 CH2           1 RES     
      22 CH2          0.5864    -0.6591   -15.7508 CH2           1 RES     
      23 CH2         -0.2855    -1.2325   -16.8833 CH2           1 RES     
      24 CH2          0.4900    -1.1675   -18.2122 CH2           1 RES     
      25 CH2         -0.3820    -1.7409   -19.3447 CH2           1 RES     
      26 CH2          0.3935    -1.6760   -20.6737 CH2           1 RES     
      27 CH2         -0.4784    -2.2493   -21.8062 CH2           1 RES     
      28 CH2          0.2970    -2.1844   -23.1351 CH2           1 RES     
      29 CH2         -0.5749    -2.7578   -24.2676 CH2           1 RES     
      30 C            0.1653    -2.6958   -25.5361 C             1 RES     
      31 C            1.2648    -2.5047    -9.3294 C             1 RES     
      32 O            0.3597    -2.1055   -10.0604 O             1 RES     
      33 O            1.1498    -2.6592    -7.8418 O             1 RES     
      34 CH2          2.3166    -3.0639   -10.0311 CH2           1 RES     
      35 CH2          1.7773    -2.8947   -11.4637 CH2           1 RES     
      36 CH2          2.6795    -3.6636   -12.4468 CH2           1 RES     
      37 CH2          2.1402    -3.4943   -13.8793 CH2           1 RES     
      38 CH2          3.0423    -4.2632   -14.8624 CH2           1 RES     
      39 CH2          2.5030    -4.0939   -16.2949 CH2           1 RES     
      40 CH2          3.4052    -4.8629   -17.2780 CH2           1 RES     
      41 CH2          2.8659    -4.6936   -18.7106 CH2           1 RES     
      42 CH2          3.7680    -5.4625   -19.6937 CH2           1 RES     
      43 CH2          3.2288    -5.2932   -21.1262 CH2           1 RES     
      44 CH2          4.1309    -6.0622   -22.1093 CH2           1 RES     
      45 CH2          3.5916    -5.8929   -23.5418 CH2           1 RES     
      46 C            4.4528    -6.6268   -24.4802 C             1 RES     
@<TRIPOS>BOND
       1       28       29 1
       2       14       13 1
       3        6        5 1
       4       25       26 1
       5       42       43 1
       6       36       37 1
       7       35       36 1
       8       21       20 1
       9        8        7 1
      10        4        1 1
      11        2        1 1
      12       40       39 1
      13       17       13 1
      14       24       23 1
      15        5        1 1
      16       10        7 1
      17       24       25 1
      18       27       28 1
      19       45       46 1
      20       31       32 1
      21       41       42 1
      22       31       33 1
      23       44       45 1
      24       12        8 1
      25       41       40 1
      26       44       43 1
      27       17       15 1
      28       30       29 1
      29       21       22 1
      30        9        6 1
      31       11        7 1
      32       23       22 1
      33       26       27 1
      34       12       14 1
      35       20       19 1
      36        9        7 1
      37       38       39 1
      38        3        1 1
      39       18       15 1
      40       34       35 1
      41       33       14 1
      42       16       15 1
      43       37       38 1
      44       31       34 1
      45       19       18 1
@<TRIPOS>SUBSTRUCTURE
       1 RES             1 RESIDUE    0 **** ROOT      0
