@<TRIPOS>MOLECULE
RES
54 53 1 0 1
SMALL
NO_CHARGES
@<TRIPOS>CRYSIN
   15.2285    10.8150    35.0335    90.0000    90.0000    90.0000  1  1
@<TRIPOS>ATOM
       1 CH3          0.9865    -0.9352    -0.4440 CH3           1 RES     
       2 CH3         -1.2371    -0.4810     0.1745 CH3           1 RES     
       3 CH3          0.4357     0.5713     1.1111 CH3           1 RES     
       4 NL           0.0000     0.0000     0.0000 NL            1 RES     
       5 CH2         -0.0192     1.0690    -0.8918 CH2           1 RES     
       6 CH2         -0.5288     0.3723    -2.1672 CH2           1 RES     
       7 OA          -0.6236     1.3632    -3.2692 OA            1 RES     
       8 P           -2.0892     2.0042    -3.2330 P             1 RES     
       9 OM          -3.1234     0.8077    -3.4755 OM            1 RES     
      10 OM          -2.2393     2.7356    -1.8180 OM            1 RES     
      11 OA          -2.2307     3.0800    -4.4089 OA            1 RES     
      12 CH2         -3.5994     3.6524    -4.3447 CH2           1 RES     
      13 CH1         -4.0549     4.0338    -5.5662 CH1           1 RES     
      14 OE          -5.0385     2.9606    -5.3616 OE            1 RES     
      15 C           -5.7234     2.2157    -6.4688 C             1 RES     
      16 O           -6.1301     1.0581    -6.3822 O             1 RES     
      17 CH2         -5.5694     3.0760    -7.5692 CH2           1 RES     
      18 CH2         -6.1532     2.2393    -8.7227 CH2           1 RES     
      19 CH2         -5.9076     2.9642   -10.0591 CH2           1 RES     
      20 CH2         -6.4914     2.1276   -11.2126 CH2           1 RES     
      21 CH2         -6.2458     2.8525   -12.5490 CH2           1 RES     
      22 CH2         -6.8296     2.0158   -13.7026 CH2           1 RES     
      23 CH2         -6.5840     2.7407   -15.0389 CH2           1 RES     
      24 CH2         -7.1678     1.9040   -16.1925 CH2           1 RES     
      25 CH2         -6.9221     2.6289   -17.5288 CH2           1 RES     
      26 CH2         -7.5059     1.7923   -18.6824 CH2           1 RES     
      27 CH2         -7.2603     2.5172   -20.0187 CH2           1 RES     
      28 CH2         -7.8441     1.6805   -21.1723 CH2           1 RES     
      29 CH2         -7.5985     2.4054   -22.5086 CH2           1 RES     
      30 CH2         -8.1823     1.5687   -23.6622 CH2           1 RES     
      31 CH2         -7.9367     2.2936   -24.9985 CH2           1 RES     
      32 CH2         -8.5205     1.4570   -26.1521 CH2           1 RES     
      33 CH3         -8.2860     2.1489   -27.4277 CH3           1 RES     
      34 CH2         -3.0380     3.6004    -6.6384 CH2           1 RES     
      35 OE          -3.8507     3.0179    -7.7082 OE            1 RES     
      36 C           -2.7403     2.6555    -8.6493 C             1 RES     
      37 O           -1.5472     2.8591    -8.4304 O             1 RES     
      38 CH2         -3.4275     2.2645    -9.8110 CH2           1 RES     
      39 CH2         -2.2774     2.0290   -10.8077 CH2           1 RES     
      40 CH2         -2.8581     1.7572   -12.2079 CH2           1 RES     
      41 CH2         -1.7080     1.5218   -13.2046 CH2           1 RES     
      42 CH2         -2.2888     1.2499   -14.6048 CH2           1 RES     
      43 CH2         -1.1387     1.0145   -15.6015 CH2           1 RES     
      44 CH2         -1.7194     0.7427   -17.0017 CH2           1 RES     
      45 CH2         -0.5693     0.5073   -17.9984 CH2           1 RES     
      46 CH2         -1.1501     0.2354   -19.3986 CH2           1 RES     
      47 CH2         -0.0000    -0.0000   -20.3953 CH2           1 RES     
      48 CH2         -0.5807    -0.2718   -21.7954 CH2           1 RES     
      49 CH2          0.5693    -0.5073   -22.7922 CH2           1 RES     
      50 CH2         -0.0114    -0.7791   -24.1923 CH2           1 RES     
      51 CH2          1.1387    -1.0145   -25.1890 CH2           1 RES     
      52 CH2          0.5579    -1.2863   -26.5892 CH2           1 RES     
      53 CH2          1.7080    -1.5218   -27.5859 CH2           1 RES     
      54 CH3          1.1537    -1.7812   -28.9224 CH3           1 RES     
@<TRIPOS>BOND
       1       34       35 1
       2       35       36 1
       3       34       13 1
       4        5        6 1
       5       30       29 1
       6       32       33 1
       7       27       28 1
       8       24       25 1
       9       30       31 1
      10       21       22 1
      11        2        4 1
      12        1        4 1
      13       14       15 1
      14       53       54 1
      15       12       13 1
      16       36       37 1
      17       28       29 1
      18       22       23 1
      19       18       19 1
      20       25       26 1
      21        7        8 1
      22       31       32 1
      23       40       39 1
      24       51       50 1
      25        8       11 1
      26       46       47 1
      27       40       41 1
      28       43       44 1
      29       49       50 1
      30        8        9 1
      31        8       10 1
      32       20       19 1
      33       52       53 1
      34       26       27 1
      35       23       24 1
      36       20       21 1
      37       36       38 1
      38       41       42 1
      39       44       45 1
      40       47       48 1
      41       15       17 1
      42        6        7 1
      43        5        4 1
      44       13       14 1
      45       11       12 1
      46       42       43 1
      47       45       46 1
      48       15       16 1
      49       18       17 1
      50       38       39 1
      51       51       52 1
      52       48       49 1
      53        3        4 1
@<TRIPOS>SUBSTRUCTURE
       1 RES             1 RESIDUE    0 **** ROOT      0
