@<TRIPOS>MOLECULE
RES
54 53 1 0 1
SMALL
NO_CHARGES
@<TRIPOS>CRYSIN
   19.0829    10.2953    35.1717    90.0000    90.0000    90.0000  1  1
@<TRIPOS>ATOM
       1 CH3          2.9876    -4.6178     6.7892 CH3           1 RES     
       2 CH3          0.9464    -3.4608     6.9574 CH3           1 RES     
       3 CH3          2.7722    -2.6734     7.8682 CH3           1 RES     
       4 NL           2.2792    -3.3777     6.8624 NL            1 RES     
       5 CH2          2.6372    -2.6060     5.7602 CH2           1 RES     
       6 CH2          2.0506    -3.4501     4.6135 CH2           1 RES     
       7 OA           2.3305    -2.7856     3.3154 OA            1 RES     
       8 P            1.1122    -1.8002     2.9916 P             1 RES     
       9 OM          -0.1995    -2.7090     2.8754 OM            1 RES     
      10 OM           1.0680    -0.7171     4.1684 OM            1 RES     
      11 OA           1.3776    -1.0633     1.5963 OA            1 RES     
      12 CH2          0.2300    -0.1596     1.3291 CH2           1 RES     
      13 CH1          0.0000     0.0000     0.0000 CH1           1 RES     
      14 OE          -0.8931    -0.3990    -1.0973 OE            1 RES     
      15 C           -2.0714    -0.5632    -0.1838 C             1 RES     
      16 O           -2.0438    -0.3697     1.0306 O             1 RES     
      17 CH2         -3.1369    -0.7640    -1.0777 CH2           1 RES     
      18 CH2         -2.7842    -0.7617    -2.5767 CH2           1 RES     
      19 CH2         -4.0790    -0.8010    -3.4095 CH2           1 RES     
      20 CH2         -3.7263    -0.7987    -4.9086 CH2           1 RES     
      21 CH2         -5.0211    -0.8379    -5.7414 CH2           1 RES     
      22 CH2         -4.6683    -0.8356    -7.2405 CH2           1 RES     
      23 CH2         -5.9631    -0.8749    -8.0733 CH2           1 RES     
      24 CH2         -5.6104    -0.8726    -9.5723 CH2           1 RES     
      25 CH2         -6.9052    -0.9118   -10.4052 CH2           1 RES     
      26 CH2         -6.5525    -0.9095   -11.9042 CH2           1 RES     
      27 CH2         -7.8473    -0.9487   -12.7370 CH2           1 RES     
      28 CH2         -7.4946    -0.9464   -14.2361 CH2           1 RES     
      29 CH2         -8.7894    -0.9857   -15.0689 CH2           1 RES     
      30 CH2         -8.4367    -0.9834   -16.5680 CH2           1 RES     
      31 CH2         -9.7315    -1.0226   -17.4008 CH2           1 RES     
      32 CH2         -9.3787    -1.0203   -18.8998 CH2           1 RES     
      33 CH3        -10.6147    -1.0578   -19.6948 CH3           1 RES     
      34 CH2          1.3407    -0.7460    -0.1322 CH2           1 RES     
      35 OE           1.6870    -0.6403    -1.5511 OE            1 RES     
      36 C            2.9820    -1.3964    -1.5138 C             1 RES     
      37 O            3.4682    -1.8957    -0.5003 O             1 RES     
      38 CH2          3.3079    -1.5296    -2.8742 CH2           1 RES     
      39 CH2          2.3238    -0.9033    -3.8796 CH2           1 RES     
      40 CH2          2.7270    -1.3037    -5.3110 CH2           1 RES     
      41 CH2          1.7429    -0.6775    -6.3164 CH2           1 RES     
      42 CH2          2.1460    -1.0779    -7.7478 CH2           1 RES     
      43 CH2          1.1619    -0.4517    -8.7532 CH2           1 RES     
      44 CH2          1.5651    -0.8521   -10.1846 CH2           1 RES     
      45 CH2          0.5810    -0.2258   -11.1901 CH2           1 RES     
      46 CH2          0.9841    -0.6262   -12.6214 CH2           1 RES     
      47 CH2         -0.0000    -0.0000   -13.6269 CH2           1 RES     
      48 CH2          0.4032    -0.4004   -15.0582 CH2           1 RES     
      49 CH2         -0.5810     0.2258   -16.0637 CH2           1 RES     
      50 CH2         -0.1778    -0.1746   -17.4950 CH2           1 RES     
      51 CH2         -1.1619     0.4517   -18.5005 CH2           1 RES     
      52 CH2         -0.7587     0.0513   -19.9318 CH2           1 RES     
      53 CH2         -1.7429     0.6775   -20.9373 CH2           1 RES     
      54 CH3         -1.3580     0.2953   -22.3035 CH3           1 RES     
@<TRIPOS>BOND
       1       38       36 1
       2       19       18 1
       3        5        6 1
       4       15       17 1
       5       36       37 1
       6       40       41 1
       7       46       47 1
       8       43       44 1
       9       12       13 1
      10       41       42 1
      11       31       32 1
      12       44       45 1
      13       47       48 1
      14       50       51 1
      15       53       54 1
      16        4        3 1
      17        8       11 1
      18       14       13 1
      19       15       16 1
      20       34       13 1
      21       19       20 1
      22        8        9 1
      23       11       12 1
      24        7        8 1
      25       49       50 1
      26       27       28 1
      27       24       25 1
      28       30       31 1
      29       35       36 1
      30       21       22 1
      31       52       53 1
      32        4        2 1
      33        4        5 1
      34       32       33 1
      35        8       10 1
      36       17       18 1
      37       22       23 1
      38       34       35 1
      39       45       46 1
      40       27       26 1
      41       42       43 1
      42       51       52 1
      43       14       15 1
      44       25       26 1
      45       23       24 1
      46       49       48 1
      47       29       30 1
      48       20       21 1
      49        4        1 1
      50        6        7 1
      51       39       40 1
      52       38       39 1
      53       28       29 1
@<TRIPOS>SUBSTRUCTURE
       1 RES             1 RESIDUE    0 **** ROOT      0
