@<TRIPOS>MOLECULE
RES
54 53 1 0 1
SMALL
NO_CHARGES
@<TRIPOS>CRYSIN
   26.8064    20.1052    21.3476    90.0000    90.0000    90.0000  1  1
@<TRIPOS>ATOM
       1 CH3          0.0000     0.0000    -0.0000 CH3           1 RES     
       2 CH3         -2.2724     0.5124     0.3269 CH3           1 RES     
       3 CH3         -0.7140     2.0076     0.6715 CH3           1 RES     
       4 NL          -1.0649     0.9533    -0.0469 NL            1 RES     
       5 CH2         -1.1209     1.4807    -1.3342 CH2           1 RES     
       6 CH2         -1.5302     0.2337    -2.1398 CH2           1 RES     
       7 OA          -0.3064     0.7309    -5.8152 OA            1 RES     
       8 P           -0.2201     0.3583    -4.2615 P             1 RES     
       9 OM           0.1691    -1.1914    -4.1785 OM            1 RES     
      10 OM           0.8527     1.3487    -3.6072 OM            1 RES     
      11 OA          -1.6478     0.5886    -3.5770 OA            1 RES     
      12 CH2          1.0328     0.5057    -6.4161 CH2           1 RES     
      13 CH1          0.9887     0.8547    -7.9154 CH1           1 RES     
      14 OE          -0.0000    -0.0000    -8.5883 OE            1 RES     
      15 C           -0.8193     1.1711    -9.0436 C             1 RES     
      16 O           -0.5461     2.3467    -8.8066 O             1 RES     
      17 CH2         -1.9729     0.5634    -9.5675 CH2           1 RES     
      18 CH2         -2.8588     1.7777    -9.9025 CH2           1 RES     
      19 CH2         -4.2552     1.2919   -10.3335 CH2           1 RES     
      20 CH2         -5.1411     2.5062   -10.6685 CH2           1 RES     
      21 CH2         -6.5375     2.0205   -11.0995 CH2           1 RES     
      22 CH2         -7.4235     3.2347   -11.4345 CH2           1 RES     
      23 CH2         -8.8198     2.7490   -11.8656 CH2           1 RES     
      24 CH2         -9.7058     3.9633   -12.2006 CH2           1 RES     
      25 CH2        -11.1021     3.4775   -12.6316 CH2           1 RES     
      26 CH2        -11.9881     4.6918   -12.9666 CH2           1 RES     
      27 CH2        -13.3845     4.2060   -13.3976 CH2           1 RES     
      28 CH2        -14.2704     5.4203   -13.7326 CH2           1 RES     
      29 CH2        -15.6668     4.9345   -14.1637 CH2           1 RES     
      30 CH2        -16.5527     6.1488   -14.4986 CH2           1 RES     
      31 CH2        -17.9491     5.6631   -14.9297 CH2           1 RES     
      32 CH2        -18.8351     6.8773   -15.2647 CH2           1 RES     
      33 CH3        -20.1679     6.4137   -15.6761 CH3           1 RES     
      34 CH2          0.5917     2.3328    -8.0865 CH2           1 RES     
      35 OE           1.6384     3.1869    -7.5215 OE            1 RES     
      36 C            1.0329     4.5184    -7.8540 C             1 RES     
      37 O            1.5432     5.6036    -7.5805 O             1 RES     
      38 CH2         -0.2484     4.1744    -8.3173 CH2           1 RES     
      39 CH2         -0.9029     5.5532    -8.5227 CH2           1 RES     
      40 CH2         -2.3921     5.3688    -8.8689 CH2           1 RES     
      41 CH2         -3.0467     6.7476    -9.0743 CH2           1 RES     
      42 CH2         -4.5359     6.5632    -9.4205 CH2           1 RES     
      43 CH2         -5.1905     7.9419    -9.6259 CH2           1 RES     
      44 CH2         -6.6797     7.7576    -9.9721 CH2           1 RES     
      45 CH2         -7.3342     9.1363   -10.1775 CH2           1 RES     
      46 CH2         -8.8234     8.9519   -10.5237 CH2           1 RES     
      47 CH2         -9.4780    10.3307   -10.7291 CH2           1 RES     
      48 CH2        -10.9672    10.1463   -11.0753 CH2           1 RES     
      49 CH2        -11.6218    11.5251   -11.2807 CH2           1 RES     
      50 CH2        -13.1110    11.3407   -11.6269 CH2           1 RES     
      51 CH2        -13.7655    12.7194   -11.8322 CH2           1 RES     
      52 CH2        -15.2547    12.5350   -12.1785 CH2           1 RES     
      53 CH2        -15.9093    13.9138   -12.3838 CH2           1 RES     
      54 CH3        -17.3308    13.7378   -12.7143 CH3           1 RES     
@<TRIPOS>BOND
       1       19       20 1
       2       34       13 1
       3       15       14 1
       4       25       26 1
       5       41       40 1
       6       49       50 1
       7       22       23 1
       8       43       42 1
       9       52       53 1
      10       43       44 1
      11       46       47 1
      12       28       29 1
      13       31       32 1
      14        4        2 1
      15       20       21 1
      16       32       33 1
      17       34       35 1
      18       16       15 1
      19       14       13 1
      20       30       29 1
      21       24       23 1
      22       36       38 1
      23       18       17 1
      24       11        8 1
      25       39       40 1
      26       24       25 1
      27       48       49 1
      28       30       31 1
      29       17       15 1
      30       45       46 1
      31       51       52 1
      32       27       28 1
      33       35       36 1
      34       22       21 1
      35        6        5 1
      36       38       39 1
      37       12        7 1
      38       19       18 1
      39        8        7 1
      40        4        3 1
      41       54       53 1
      42        4        1 1
      43       41       42 1
      44       44       45 1
      45       47       48 1
      46       50       51 1
      47        9        8 1
      48       26       27 1
      49       13       12 1
      50       36       37 1
      51        4        5 1
      52       10        8 1
      53       11        6 1
@<TRIPOS>SUBSTRUCTURE
       1 RES             1 RESIDUE    0 **** ROOT      0
