@<TRIPOS>MOLECULE
RES
27 26 1 0 1
SMALL
NO_CHARGES
@<TRIPOS>CRYSIN
    5.0279     7.0482    35.6508    90.0000    90.0000    90.0000  1  1
@<TRIPOS>ATOM
       1 O           11.5128     2.0482    12.6727 O             1 RES     
       2 C           11.5035     0.8182    12.6728 C             1 RES     
       3 OA          11.5103     0.1107    13.8049 OA            1 RES     
       4 H           11.5228     0.7278    14.5402 H             1 RES     
       5 CH2         11.4949     0.0000    11.5001 CH2           1 RES     
       6 CH2         11.4949     0.8888    10.2425 CH2           1 RES     
       7 CH2         11.4949     0.0000     8.9848 CH2           1 RES     
       8 CH2         11.4949     0.8888     7.7272 CH2           1 RES     
       9 CH2         11.4949     0.0000     6.4696 CH2           1 RES     
      10 CH2         11.4949     0.8888     5.2119 CH2           1 RES     
      11 CH2         11.4949     0.0000     3.9543 CH2           1 RES     
      12 CH2         11.4949     0.8888     2.6967 CH2           1 RES     
      13 CH2         11.4949     0.0000     1.4391 CH2           1 RES     
      14 CH2         11.4949     0.8888     0.1814 CH2           1 RES     
      15 CH2         11.4949     0.0000    -1.0762 CH2           1 RES     
      16 CH2         11.4949     0.8888    -2.3338 CH2           1 RES     
      17 CH2         11.4949    -0.0000    -3.5914 CH2           1 RES     
      18 CH2         11.4949     0.8888    -4.8491 CH2           1 RES     
      19 CH2         11.4949    -0.0000    -6.1067 CH2           1 RES     
      20 CH2         11.4949     0.8888    -7.3643 CH2           1 RES     
      21 CH2         11.4949    -0.0000    -8.6220 CH2           1 RES     
      22 CH2         11.4949     0.8888    -9.8796 CH2           1 RES     
      23 CH2         11.4949    -0.0000   -11.1372 CH2           1 RES     
      24 CH2         11.4949     0.8888   -12.3948 CH2           1 RES     
      25 CH2         11.4949    -0.0000   -13.6525 CH2           1 RES     
      26 CH2         11.4949     0.8888   -14.9101 CH2           1 RES     
      27 CH3         11.4949     0.0404   -16.1106 CH3           1 RES     
@<TRIPOS>BOND
       1        2        5 1
       2       18       19 1
       3        2        3 1
       4        9       10 1
       5       21       22 1
       6       15       16 1
       7       24       25 1
       8       12       13 1
       9       17       16 1
      10        2        1 1
      11        3        4 1
      12        6        7 1
      13       27       26 1
      14        6        5 1
      15       22       23 1
      16        7        8 1
      17       10       11 1
      18       19       20 1
      19       13       14 1
      20       25       26 1
      21       23       24 1
      22       17       18 1
      23       11       12 1
      24       14       15 1
      25        8        9 1
      26       20       21 1
@<TRIPOS>SUBSTRUCTURE
       1 RES             1 RESIDUE    0 **** ROOT      0
