@<TRIPOS>MOLECULE
RES
26 25 1 0 1
SMALL
NO_CHARGES
@<TRIPOS>CRYSIN
    5.3542     7.0955    34.9804    90.0000    90.0000    90.0000  1  1
@<TRIPOS>ATOM
       1 OE          11.7929     2.0955    12.8610 OE            1 RES     
       2 C           11.9295     0.6572    13.2641 C             1 RES     
       3 O           11.7427     0.2322    14.4032 O             1 RES     
       4 CH2         12.0969     0.0000    12.0334 CH2           1 RES     
       5 CH2         12.0969     0.8888    10.7758 CH2           1 RES     
       6 CH2         12.0969     0.0000     9.5182 CH2           1 RES     
       7 CH2         12.0969     0.8888     8.2605 CH2           1 RES     
       8 CH2         12.0969     0.0000     7.0029 CH2           1 RES     
       9 CH2         12.0969     0.8888     5.7453 CH2           1 RES     
      10 CH2         12.0969     0.0000     4.4877 CH2           1 RES     
      11 CH2         12.0969     0.8888     3.2300 CH2           1 RES     
      12 CH2         12.0969     0.0000     1.9724 CH2           1 RES     
      13 CH2         12.0969     0.8888     0.7148 CH2           1 RES     
      14 CH2         12.0969     0.0000    -0.5429 CH2           1 RES     
      15 CH2         12.0969     0.8888    -1.8005 CH2           1 RES     
      16 CH2         12.0969    -0.0000    -3.0581 CH2           1 RES     
      17 CH2         12.0969     0.8888    -4.3157 CH2           1 RES     
      18 CH2         12.0969    -0.0000    -5.5734 CH2           1 RES     
      19 CH2         12.0969     0.8888    -6.8310 CH2           1 RES     
      20 CH2         12.0969    -0.0000    -8.0886 CH2           1 RES     
      21 CH2         12.0969     0.8888    -9.3463 CH2           1 RES     
      22 CH2         12.0969    -0.0000   -10.6039 CH2           1 RES     
      23 CH2         12.0969     0.8888   -11.8615 CH2           1 RES     
      24 CH2         12.0969    -0.0000   -13.1191 CH2           1 RES     
      25 CH2         12.0969     0.8888   -14.3768 CH2           1 RES     
      26 CH3         12.0969     0.0404   -15.5772 CH3           1 RES     
@<TRIPOS>BOND
       1       18       19 1
       2        6        7 1
       3       21       22 1
       4       12       13 1
       5       24       23 1
       6       24       25 1
       7        9       10 1
       8       15       16 1
       9       14       13 1
      10        2        1 1
      11       17       18 1
      12       20       21 1
      13       11       12 1
      14        8        9 1
      15       14       15 1
      16        2        3 1
      17        4        2 1
      18        5        6 1
      19       22       23 1
      20       19       20 1
      21       16       17 1
      22        7        8 1
      23       10       11 1
      24       25       26 1
      25        5        4 1
@<TRIPOS>SUBSTRUCTURE
       1 RES             1 RESIDUE    0 **** ROOT      0
