@<TRIPOS>MOLECULE
RES
27 26 1 0 1
SMALL
NO_CHARGES
@<TRIPOS>CRYSIN
    5.0279     7.0482    34.4503    90.0000    90.0000    90.0000  1  1
@<TRIPOS>ATOM
       1 CH3         10.4278     0.8484    11.6335 CH3           1 RES     
       2 CH2         10.4278     0.0000    10.4330 CH2           1 RES     
       3 CH2         10.4278     0.8888     9.1754 CH2           1 RES     
       4 CH2         10.4278     0.0000     7.9178 CH2           1 RES     
       5 CH2         10.4278     0.8888     6.6601 CH2           1 RES     
       6 CH2         10.4278     0.0000     5.4025 CH2           1 RES     
       7 CH2         10.4278     0.8888     4.1449 CH2           1 RES     
       8 CH2         10.4278     0.0000     2.8872 CH2           1 RES     
       9 CH2         10.4278     0.8888     1.6296 CH2           1 RES     
      10 CH2         10.4278     0.0000     0.3720 CH2           1 RES     
      11 CH2         10.4278     0.8888    -0.8856 CH2           1 RES     
      12 CH2         10.4278     0.0000    -2.1433 CH2           1 RES     
      13 CH2         10.4278     0.8888    -3.4009 CH2           1 RES     
      14 CH2         10.4278    -0.0000    -4.6585 CH2           1 RES     
      15 CH2         10.4278     0.8888    -5.9162 CH2           1 RES     
      16 CH2         10.4278    -0.0000    -7.1738 CH2           1 RES     
      17 CH2         10.4278     0.8888    -8.4314 CH2           1 RES     
      18 CH2         10.4278    -0.0000    -9.6890 CH2           1 RES     
      19 CH2         10.4278     0.8888   -10.9467 CH2           1 RES     
      20 CH2         10.4278    -0.0000   -12.2043 CH2           1 RES     
      21 CH2         10.4278     0.8888   -13.4619 CH2           1 RES     
      22 CH2         10.4278    -0.0000   -14.7196 CH2           1 RES     
      23 CH2         10.4278     0.8888   -15.9772 CH2           1 RES     
      24 O           10.4458     2.0482    11.6056 O             1 RES     
      25 C           10.4365     0.8182    11.6057 C             1 RES     
      26 OA          10.4432     0.1107    12.7378 OA            1 RES     
      27 H           10.4558     0.7278    13.4731 H             1 RES     
@<TRIPOS>BOND
       1        8        9 1
       2       26       27 1
       3       17       18 1
       4       20       21 1
       5       11       12 1
       6        5        6 1
       7       16       17 1
       8       10       11 1
       9        1        2 1
      10        2        3 1
      11       15       14 1
      12       25        2 1
      13       25       26 1
      14        6        7 1
      15        9       10 1
      16       12       13 1
      17       15       16 1
      18       18       19 1
      19       21       22 1
      20       19       20 1
      21        7        8 1
      22       24       25 1
      23       13       14 1
      24       22       23 1
      25        4        3 1
      26        4        5 1
@<TRIPOS>SUBSTRUCTURE
       1 RES             1 RESIDUE    0 **** ROOT      0
