@<TRIPOS>MOLECULE
RES
38 37 1 0 1
SMALL
NO_CHARGES
@<TRIPOS>CRYSIN
    7.0478    13.1171    25.6897    90.0000    90.0000    90.0000  1  1
@<TRIPOS>ATOM
       1 CH1          0.2648    -2.4383    -0.0340 CH1           1 RES     
       2 OE           0.6340    -3.5760    -0.8885 OE            1 RES     
       3 C            0.7706    -2.7158    -2.1098 C             1 RES     
       4 O            0.5839    -1.5002    -2.1302 O             1 RES     
       5 CH2          0.9381    -3.6565    -3.1401 CH2           1 RES     
       6 CH2          0.9381    -2.7677    -4.3977 CH2           1 RES     
       7 CH2          0.9381    -3.6565    -5.6553 CH2           1 RES     
       8 CH2          0.9381    -2.7677    -6.9130 CH2           1 RES     
       9 CH2          0.9381    -3.6565    -8.1706 CH2           1 RES     
      10 CH2          0.9381    -2.7677    -9.4282 CH2           1 RES     
      11 CH2          0.9381    -3.6565   -10.6859 CH2           1 RES     
      12 CH2          0.9381    -2.7677   -11.9435 CH2           1 RES     
      13 CH2          0.9381    -3.6565   -13.2011 CH2           1 RES     
      14 CH2          0.9381    -2.7677   -14.4587 CH2           1 RES     
      15 CH2          0.9381    -3.6565   -15.7164 CH2           1 RES     
      16 CH2          0.9381    -2.7677   -16.9740 CH2           1 RES     
      17 CH2          0.9381    -3.6565   -18.2316 CH2           1 RES     
      18 CH2          0.9381    -2.7677   -19.4893 CH2           1 RES     
      19 CH3          0.9381    -3.6161   -20.6897 CH3           1 RES     
      20 CH2          0.2489    -1.1479    -0.8745 CH2           1 RES     
      21 OE           0.0000     0.0000     0.0000 OE            1 RES     
      22 C            0.0792     1.0815    -1.0364 C             1 RES     
      23 O           -0.0659     2.2807    -0.8044 O             1 RES     
      24 CH2          0.1398     0.3597    -2.2405 CH2           1 RES     
      25 CH2          0.0812     1.4792    -3.2963 CH2           1 RES     
      26 CH2         -0.0395     0.8566    -4.6996 CH2           1 RES     
      27 CH2         -0.0981     1.9761    -5.7554 CH2           1 RES     
      28 CH2         -0.2188     1.3535    -7.1588 CH2           1 RES     
      29 CH2         -0.2773     2.4730    -8.2146 CH2           1 RES     
      30 CH2         -0.3981     1.8504    -9.6179 CH2           1 RES     
      31 CH2         -0.4566     2.9699   -10.6738 CH2           1 RES     
      32 CH2         -0.5774     2.3473   -12.0771 CH2           1 RES     
      33 CH2         -0.6359     3.4668   -13.1329 CH2           1 RES     
      34 CH2         -0.7566     2.8442   -14.5362 CH2           1 RES     
      35 CH2         -0.8152     3.9637   -15.5921 CH2           1 RES     
      36 CH2         -0.9359     3.3410   -16.9954 CH2           1 RES     
      37 CH2         -0.9945     4.4606   -18.0512 CH2           1 RES     
      38 CH3         -1.1097     3.8662   -19.3908 CH3           1 RES     
@<TRIPOS>BOND
       1       21       22 1
       2       24       25 1
       3       29       30 1
       4       35       36 1
       5       32       33 1
       6        2        3 1
       7        6        7 1
       8       20        1 1
       9       15       16 1
      10        9       10 1
      11       12       13 1
      12       16       17 1
      13       10       11 1
      14        7        8 1
      15       13       14 1
      16        2        1 1
      17       22       24 1
      18       33       34 1
      19       27       28 1
      20       30       31 1
      21       22       23 1
      22       27       26 1
      23       37       38 1
      24       25       26 1
      25       20       21 1
      26        8        9 1
      27       17       18 1
      28       11       12 1
      29       37       36 1
      30       15       14 1
      31       18       19 1
      32       34       35 1
      33       28       29 1
      34        3        4 1
      35       31       32 1
      36        5        6 1
      37        5        3 1
@<TRIPOS>SUBSTRUCTURE
       1 RES             1 RESIDUE    0 **** ROOT      0
