@<TRIPOS>MOLECULE
RES
27 26 1 0 1
SMALL
NO_CHARGES
@<TRIPOS>CRYSIN
    7.0525    16.0141     7.3819    90.0000    90.0000    90.0000  1  1
@<TRIPOS>ATOM
       1 C            0.0501    -8.8874    -0.9497 C             1 RES     
       2 H            1.0007    -8.8983    -1.5245 H             1 RES     
       3 H            0.0120    -9.7931    -0.3084 H             1 RES     
       4 H           -0.8052    -8.9169    -1.6580 H             1 RES     
       5 C           -0.1156    -0.0582     0.0114 C             1 RES     
       6 H           -1.0518    -0.0540     0.6157 H             1 RES     
       7 H            0.7366    -0.0450     0.7239 H             1 RES     
       8 C           -0.0368    -1.3096    -0.8660 C             1 RES     
       9 H            0.9123    -1.2857    -1.4455 H             1 RES     
      10 H           -0.8907    -1.3074    -1.5785 H             1 RES     
      11 C           -0.0855    -2.5842    -0.0154 C             1 RES     
      12 H           -1.0351    -2.6022     0.5639 H             1 RES     
      13 H            0.7687    -2.5826     0.6974 H             1 RES     
      14 C           -0.0066    -3.8367    -0.8964 C             1 RES     
      15 H            0.9429    -3.8185    -1.4758 H             1 RES     
      16 H           -0.8608    -3.8380    -1.6093 H             1 RES     
      17 C           -0.0559    -5.1117    -0.0461 C             1 RES     
      18 H           -1.0054    -5.1297     0.5334 H             1 RES     
      19 H            0.7982    -5.1106     0.6667 H             1 RES     
      20 C            0.0224    -6.3642    -0.9271 C             1 RES     
      21 H            0.9720    -6.3467    -1.5064 H             1 RES     
      22 H           -0.8318    -6.3655    -1.6399 H             1 RES     
      23 C           -0.0273    -7.6385    -0.0763 C             1 RES     
      24 H           -0.9760    -7.6644     0.5030 H             1 RES     
      25 H            0.8263    -7.6458     0.6363 H             1 RES     
      26 O           -0.0452     1.0959    -0.7805 O             1 RES     
      27 H           -0.9446     1.2210    -1.1821 H             1 RES     
@<TRIPOS>BOND
       1        8       10 1
       2        5        6 1
       3        2        1 1
       4       17       18 1
       5        5        7 1
       6        5        8 1
       7        8       11 1
       8       20       23 1
       9       23       24 1
      10       20       22 1
      11        5       26 1
      12       11       14 1
      13        8        9 1
      14       14       15 1
      15       17       20 1
      16        4        1 1
      17       11       13 1
      18       26       27 1
      19       20       21 1
      20       23        1 1
      21       23       25 1
      22       17       19 1
      23       14       16 1
      24       14       17 1
      25       11       12 1
      26        3        1 1
@<TRIPOS>SUBSTRUCTURE
       1 RES             1 RESIDUE    0 **** ROOT      0
