@<TRIPOS>MOLECULE
RES
4 3 1 0 1
SMALL
NO_CHARGES
@<TRIPOS>CRYSIN
    5.7671     7.5751     6.3378    90.0000    90.0000    90.0000  1  1
@<TRIPOS>ATOM
       1 C           -0.2207     0.0194    -0.3295 C             1 RES     
       2 O            0.1864     1.2569     0.1680 O             1 RES     
       3 O            0.5464    -0.9917     0.2483 O             1 RES     
       4 H            0.0010    -1.3182     1.0083 H             1 RES     
@<TRIPOS>BOND
       1        1        3 1
       2        1        2 1
       3        3        4 1
@<TRIPOS>SUBSTRUCTURE
       1 RES             1 RESIDUE    0 **** ROOT      0
