@<TRIPOS>MOLECULE
RES
12064 9376 1 0 1
SMALL
NO_CHARGES
@<TRIPOS>CRYSIN
   67.6310    53.8420   116.2640    90.0000    90.0000    90.0000  1  1
@<TRIPOS>ATOM
       1 CH3         48.4734     5.2840    80.0760 CH3           1 RES     
       2 CH3         46.2877     4.6171    79.5184 CH3           1 RES     
       3 CH3         46.6608     6.0158    81.1577 CH3           1 RES     
       4 NL          47.0809     5.5935    79.9762 NL            1 RES     
       5 CH2         46.9437     6.7349    79.1907 CH2           1 RES     
       6 CH2         47.4381     6.2103    77.8299 CH2           1 RES     
       7 OA          47.3714     7.3010    76.8242 OA            1 RES     
       8 P           45.9291     7.2490    76.1335 P             1 RES     
       9 OM          45.8124     5.8253    75.4129 OM            1 RES     
      10 OM          44.8527     7.4981    77.2908 OM            1 RES     
      11 OA          45.8182     8.4123    75.0405 OA            1 RES     
      12 CH2         44.4705     8.3337    74.4219 CH2           1 RES     
      13 CH1         44.4697     8.7669    73.1346 CH1           1 RES     
      14 OE          44.1393     7.3677    72.8279 OE            1 RES     
      15 C           44.4497     6.6886    71.5269 C             1 RES     
      16 O           44.6521     5.4819    71.4018 O             1 RES     
      17 CH2         44.6348     7.7671    70.6453 CH2           1 RES     
      18 CH2         45.0863     7.0602    69.3539 CH2           1 RES     
      19 CH2         45.5083     8.1129    68.3121 CH2           1 RES     
      20 CH2         45.9598     7.4060    67.0206 CH2           1 RES     
      21 CH2         46.3817     8.4587    65.9789 CH2           1 RES     
      22 CH2         46.8333     7.7518    64.6874 CH2           1 RES     
      23 CH2         47.2552     8.8045    63.6456 CH2           1 RES     
      24 CH2         47.7067     8.0975    62.3542 CH2           1 RES     
      25 CH2         48.1287     9.1503    61.3124 CH2           1 RES     
      26 CH2         48.5802     8.4433    60.0209 CH2           1 RES     
      27 CH2         49.0021     9.4961    58.9791 CH2           1 RES     
      28 CH2         49.4536     8.7891    57.6877 CH2           1 RES     
      29 CH2         49.8756     9.8419    56.6459 CH2           1 RES     
      30 CH2         50.3271     9.1349    55.3544 CH2           1 RES     
      31 CH2         50.7490    10.1877    54.3127 CH2           1 RES     
      32 CH2         51.2006     9.4807    53.0212 CH2           1 RES     
      33 CH3         51.6033    10.4856    52.0268 CH3           1 RES     
      34 CH2         45.9188     9.0587    72.7027 CH2           1 RES     
      35 OE          46.0379     8.4607    71.3713 OE            1 RES     
      36 C           47.4680     8.8228    71.0996 C             1 RES     
      37 O           48.1891     9.4448    71.8780 O             1 RES     
      38 CH2         47.6317     8.4668    69.7501 CH2           1 RES     
      39 CH2         49.0558     8.9701    69.4496 CH2           1 RES     
      40 CH2         49.3476     8.8190    67.9451 CH2           1 RES     
      41 CH2         50.7717     9.3222    67.6445 CH2           1 RES     
      42 CH2         51.0635     9.1711    66.1400 CH2           1 RES     
      43 CH2         52.4876     9.6743    65.8395 CH2           1 RES     
      44 CH2         52.7794     9.5232    64.3349 CH2           1 RES     
      45 CH2         54.2035    10.0265    64.0344 CH2           1 RES     
      46 CH2         54.4952     9.8754    62.5299 CH2           1 RES     
      47 CH2         55.9193    10.3786    62.2293 CH2           1 RES     
      48 CH2         56.2111    10.2275    60.7248 CH2           1 RES     
      49 CH2         57.6352    10.7308    60.4242 CH2           1 RES     
      50 CH2         57.9270    10.5797    58.9197 CH2           1 RES     
      51 CH2         59.3511    11.0829    58.6192 CH2           1 RES     
      52 CH2         59.6429    10.9318    57.1146 CH2           1 RES     
      53 CH2         61.0670    11.4351    56.8141 CH2           1 RES     
      54 CH3         61.3455    11.2908    55.3780 CH3           1 RES     
      55 CH3         21.1495    27.1431    80.0760 CH3           1 RES     
      56 CH3         18.8652    27.2055    79.5184 CH3           1 RES     
      57 CH3         19.6635    28.4130    81.1577 CH3           1 RES     
      58 NL          19.9276    27.8792    79.9762 NL            1 RES     
      59 CH2         20.1603    29.0050    79.1907 CH2           1 RES     
      60 CH2         20.4624    28.3504    77.8299 CH2           1 RES     
      61 OA          20.7457    29.4057    76.8242 OA            1 RES     
      62 P           19.3618    29.8149    76.1335 P             1 RES     
      63 OM          18.7986    28.5020    75.4129 OM            1 RES     
      64 OM          18.4203    30.3931    77.2908 OM            1 RES     
      65 OA          19.6263    30.9531    75.0405 OA            1 RES     
      66 CH2         18.3235    31.3069    74.4219 CH2           1 RES     
      67 CH1         18.4604    31.7178    73.1346 CH1           1 RES     
      68 OE          17.7025    30.4962    72.8279 OE            1 RES     
      69 C           17.7810    29.7537    71.5269 C             1 RES     
      70 O           17.5893    28.5452    71.4018 O             1 RES     
      71 CH2         18.2992    30.7175    70.6453 CH2           1 RES     
      72 CH2         18.5027    29.9037    69.3539 CH2           1 RES     
      73 CH2         19.2373    30.7677    68.3121 CH2           1 RES     
      74 CH2         19.4407    29.9539    67.0206 CH2           1 RES     
      75 CH2         20.1754    30.8180    65.9789 CH2           1 RES     
      76 CH2         20.3788    30.0042    64.6874 CH2           1 RES     
      77 CH2         21.1134    30.8682    63.6456 CH2           1 RES     
      78 CH2         21.3169    30.0544    62.3542 CH2           1 RES     
      79 CH2         22.0515    30.9185    61.3124 CH2           1 RES     
      80 CH2         22.2549    30.1047    60.0209 CH2           1 RES     
      81 CH2         22.9896    30.9687    58.9791 CH2           1 RES     
      82 CH2         23.1930    30.1549    57.6877 CH2           1 RES     
      83 CH2         23.9277    31.0190    56.6459 CH2           1 RES     
      84 CH2         24.1311    30.2052    55.3544 CH2           1 RES     
      85 CH2         24.8657    31.0692    54.3127 CH2           1 RES     
      86 CH2         25.0692    30.2554    53.0212 CH2           1 RES     
      87 CH3         25.7704    31.0802    52.0268 CH3           1 RES     
      88 CH2         19.9272    31.5339    72.7027 CH2           1 RES     
      89 OE          19.8500    30.9291    71.3713 OE            1 RES     
      90 C           21.3210    30.8179    71.0996 C             1 RES     
      91 O           22.2025    31.1784    71.8780 O             1 RES     
      92 CH2         21.3631    30.4283    69.7501 CH2           1 RES     
      93 CH2         22.8733    30.4529    69.4496 CH2           1 RES     
      94 CH2         23.1020    30.2169    67.9451 CH2           1 RES     
      95 CH2         24.6121    30.2414    67.6445 CH2           1 RES     
      96 CH2         24.8408    30.0054    66.1400 CH2           1 RES     
      97 CH2         26.3510    30.0299    65.8395 CH2           1 RES     
      98 CH2         26.5796    29.7939    64.3349 CH2           1 RES     
      99 CH2         28.0898    29.8185    64.0344 CH2           1 RES     
     100 CH2         28.3184    29.5824    62.5299 CH2           1 RES     
     101 CH2         29.8286    29.6070    62.2293 CH2           1 RES     
     102 CH2         30.0573    29.3710    60.7248 CH2           1 RES     
     103 CH2         31.5674    29.3955    60.4242 CH2           1 RES     
     104 CH2         31.7961    29.1595    58.9197 CH2           1 RES     
     105 CH2         33.3063    29.1840    58.6192 CH2           1 RES     
     106 CH2         33.5349    28.9480    57.1146 CH2           1 RES     
     107 CH2         35.0451    28.9726    56.8141 CH2           1 RES     
     108 CH3         35.2633    28.7473    55.3780 CH3           1 RES     
     109 CH3         48.4734    16.2135    80.0760 CH3           1 RES     
     110 CH3         46.1899    16.1241    79.5184 CH3           1 RES     
     111 CH3         46.9063    17.3820    81.1577 CH3           1 RES     
     112 NL          47.2053    16.8669    79.9762 NL            1 RES     
     113 CH2         47.3627    18.0056    79.1907 CH2           1 RES     
     114 CH2         47.7076    17.3726    77.8299 CH2           1 RES     
     115 OA          47.9202    18.4444    76.8242 OA            1 RES     
     116 P           46.5121    18.7607    76.1335 P             1 RES     
     117 OM          46.0374    17.4134    75.4129 OM            1 RES     
     118 OM          45.5344    19.2751    77.2908 OM            1 RES     
     119 OA          46.7005    19.9140    75.0405 OA            1 RES     
     120 CH2         45.3771    20.1805    74.4219 CH2           1 RES     
     121 CH1         45.4864    20.5996    73.1346 CH1           1 RES     
     122 OE          44.8113    19.3304    72.8279 OE            1 RES     
     123 C           44.9389    18.5947    71.5269 C             1 RES     
     124 O           44.8279    17.3762    71.4018 O             1 RES     
     125 CH2         45.3920    19.5908    70.6453 CH2           1 RES     
     126 CH2         45.6490    18.7923    69.3539 CH2           1 RES     
     127 CH2         46.3247    19.7032    68.3121 CH2           1 RES     
     128 CH2         46.5817    18.9047    67.0206 CH2           1 RES     
     129 CH2         47.2573    19.8156    65.9789 CH2           1 RES     
     130 CH2         47.5144    19.0171    64.6874 CH2           1 RES     
     131 CH2         48.1900    19.9281    63.6456 CH2           1 RES     
     132 CH2         48.4470    19.1295    62.3542 CH2           1 RES     
     133 CH2         49.1227    20.0405    61.3124 CH2           1 RES     
     134 CH2         49.3797    19.2420    60.0209 CH2           1 RES     
     135 CH2         50.0553    20.1529    58.9791 CH2           1 RES     
     136 CH2         50.3124    19.3544    57.6877 CH2           1 RES     
     137 CH2         50.9880    20.2654    56.6459 CH2           1 RES     
     138 CH2         51.2450    19.4668    55.3544 CH2           1 RES     
     139 CH2         51.9207    20.3778    54.3127 CH2           1 RES     
     140 CH2         52.1777    19.5793    53.0212 CH2           1 RES     
     141 CH3         52.8226    20.4488    52.0268 CH3           1 RES     
     142 CH2         46.9621    20.5135    72.7027 CH2           1 RES     
     143 OE          46.9253    19.9050    71.3713 OE            1 RES     
     144 C           48.4004    19.8917    71.0996 C             1 RES     
     145 O           49.2560    20.3099    71.8780 O             1 RES     
     146 CH2         48.4684    19.5057    69.7501 CH2           1 RES     
     147 CH2         49.9736    19.6305    69.4496 CH2           1 RES     
     148 CH2         50.2174    19.4102    67.9451 CH2           1 RES     
     149 CH2         51.7226    19.5350    67.6445 CH2           1 RES     
     150 CH2         51.9664    19.3147    66.1400 CH2           1 RES     
     151 CH2         53.4716    19.4394    65.8395 CH2           1 RES     
     152 CH2         53.7154    19.2191    64.3349 CH2           1 RES     
     153 CH2         55.2207    19.3439    64.0344 CH2           1 RES     
     154 CH2         55.4645    19.1236    62.5299 CH2           1 RES     
     155 CH2         56.9697    19.2483    62.2293 CH2           1 RES     
     156 CH2         57.2135    19.0280    60.7248 CH2           1 RES     
     157 CH2         58.7187    19.1528    60.4242 CH2           1 RES     
     158 CH2         58.9625    18.9325    58.9197 CH2           1 RES     
     159 CH2         60.4678    19.0572    58.6192 CH2           1 RES     
     160 CH2         60.7116    18.8369    57.1146 CH2           1 RES     
     161 CH2         62.2168    18.9617    56.8141 CH2           1 RES     
     162 CH3         62.4495    18.7514    55.3780 CH3           1 RES     
     163 CH3         21.1495    32.6078    80.0760 CH3           1 RES     
     164 CH3         18.8651    32.6655    79.5184 CH3           1 RES     
     165 CH3         19.6609    33.8747    81.1577 CH3           1 RES     
     166 NL          19.9261    33.3414    79.9762 NL            1 RES     
     167 CH2         20.1564    34.4677    79.1907 CH2           1 RES     
     168 CH2         20.4599    33.8138    77.8299 CH2           1 RES     
     169 OA          20.7411    34.8697    76.8242 OA            1 RES     
     170 P           19.3562    35.2759    76.1335 P             1 RES     
     171 OM          18.7958    33.9619    75.4129 OM            1 RES     
     172 OM          18.4136    35.8522    77.2908 OM            1 RES     
     173 OA          19.6184    36.4147    75.0405 OA            1 RES     
     174 CH2         18.3149    36.7658    74.4219 CH2           1 RES     
     175 CH1         18.4510    37.1771    73.1346 CH1           1 RES     
     176 OE          17.6956    35.9539    72.8279 OE            1 RES     
     177 C           17.7756    35.2115    71.5269 C             1 RES     
     178 O           17.5864    34.0026    71.4018 O             1 RES     
     179 CH2         18.2919    36.1764    70.6453 CH2           1 RES     
     180 CH2         18.4970    35.3630    69.3539 CH2           1 RES     
     181 CH2         19.2298    36.2285    68.3121 CH2           1 RES     
     182 CH2         19.4349    35.4151    67.0206 CH2           1 RES     
     183 CH2         20.1678    36.2807    65.9789 CH2           1 RES     
     184 CH2         20.3729    35.4673    64.6874 CH2           1 RES     
     185 CH2         21.1058    36.3329    63.6456 CH2           1 RES     
     186 CH2         21.3109    35.5195    62.3542 CH2           1 RES     
     187 CH2         22.0437    36.3851    61.3124 CH2           1 RES     
     188 CH2         22.2488    35.5717    60.0209 CH2           1 RES     
     189 CH2         22.9817    36.4373    58.9791 CH2           1 RES     
     190 CH2         23.1868    35.6239    57.6877 CH2           1 RES     
     191 CH2         23.9197    36.4895    56.6459 CH2           1 RES     
     192 CH2         24.1248    35.6761    55.3544 CH2           1 RES     
     193 CH2         24.8576    36.5417    54.3127 CH2           1 RES     
     194 CH2         25.0627    35.7283    53.0212 CH2           1 RES     
     195 CH3         25.7623    36.5545    52.0268 CH3           1 RES     
     196 CH2         19.9181    36.9962    72.7027 CH2           1 RES     
     197 OE          19.8422    36.3912    71.3713 OE            1 RES     
     198 C           21.3134    36.2831    71.0996 C             1 RES     
     199 O           22.1941    36.6454    71.8780 O             1 RES     
     200 CH2         21.3563    35.8936    69.7501 CH2           1 RES     
     201 CH2         22.8665    35.9212    69.4496 CH2           1 RES     
     202 CH2         23.0956    35.6857    67.9451 CH2           1 RES     
     203 CH2         24.6057    35.7133    67.6445 CH2           1 RES     
     204 CH2         24.8349    35.4778    66.1400 CH2           1 RES     
     205 CH2         26.3450    35.5054    65.8395 CH2           1 RES     
     206 CH2         26.5741    35.2699    64.3349 CH2           1 RES     
     207 CH2         28.0843    35.2976    64.0344 CH2           1 RES     
     208 CH2         28.3134    35.0620    62.5299 CH2           1 RES     
     209 CH2         29.8235    35.0897    62.2293 CH2           1 RES     
     210 CH2         30.0526    34.8541    60.7248 CH2           1 RES     
     211 CH2         31.5628    34.8818    60.4242 CH2           1 RES     
     212 CH2         31.7919    34.6462    58.9197 CH2           1 RES     
     213 CH2         33.3020    34.6739    58.6192 CH2           1 RES     
     214 CH2         33.5312    34.4384    57.1146 CH2           1 RES     
     215 CH2         35.0413    34.4660    56.8141 CH2           1 RES     
     216 CH3         35.2600    34.2412    55.3780 CH3           1 RES     
     217 CH3         21.1495    38.0726    80.0760 CH3           1 RES     
     218 CH3         19.2561    39.3521    79.5184 CH3           1 RES     
     219 CH3         20.5780    39.9419    81.1577 CH3           1 RES     
     220 NL          20.5141    39.3498    79.9762 NL            1 RES     
     221 CH2         21.3150    40.1745    79.1907 CH2           1 RES     
     222 CH2         21.2183    39.4601    77.8299 CH2           1 RES     
     223 OA          22.0241    40.1981    76.8242 OA            1 RES     
     224 P           21.0763    41.2865    76.1335 P             1 RES     
     225 OM          19.8962    40.4815    75.4129 OM            1 RES     
     226 OM          20.5927    42.2799    77.2908 OM            1 RES     
     227 OA          21.9108    42.1046    75.0405 OA            1 RES     
     228 CH2         21.0018    43.1027    74.4219 CH2           1 RES     
     229 CH1         21.3380    43.3758    73.1346 CH1           1 RES     
     230 OE          20.0426    42.7524    72.8279 OE            1 RES     
     231 C           19.7100    42.0839    71.5269 C             1 RES     
     232 O           18.8993    41.1674    71.4018 O             1 RES     
     233 CH2         20.6648    42.6186    70.6453 CH2           1 RES     
     234 CH2         20.3993    41.8228    69.3539 CH2           1 RES     
     235 CH2         21.4831    42.1572    68.3121 CH2           1 RES     
     236 CH2         21.2176    41.3614    67.0206 CH2           1 RES     
     237 CH2         22.3014    41.6958    65.9789 CH2           1 RES     
     238 CH2         22.0359    40.9000    64.6874 CH2           1 RES     
     239 CH2         23.1197    41.2343    63.6456 CH2           1 RES     
     240 CH2         22.8542    40.4386    62.3542 CH2           1 RES     
     241 CH2         23.9380    40.7729    61.3124 CH2           1 RES     
     242 CH2         23.6725    39.9772    60.0209 CH2           1 RES     
     243 CH2         24.7563    40.3115    58.9791 CH2           1 RES     
     244 CH2         24.4908    39.5158    57.6877 CH2           1 RES     
     245 CH2         25.5746    39.8501    56.6459 CH2           1 RES     
     246 CH2         25.3091    39.0544    55.3544 CH2           1 RES     
     247 CH2         26.3929    39.3887    54.3127 CH2           1 RES     
     248 CH2         26.1274    38.5930    53.0212 CH2           1 RES     
     249 CH3         27.1619    38.9121    52.0268 CH3           1 RES     
     250 CH2         22.4765    42.4330    72.7027 CH2           1 RES     
     251 OE          22.0866    41.9643    71.3713 OE            1 RES     
     252 C           23.2678    41.0805    71.0996 C             1 RES     
     253 O           24.2049    40.9112    71.8780 O             1 RES     
     254 CH2         23.0941    40.7292    69.7501 CH2           1 RES     
     255 CH2         24.3812    39.9388    69.4496 CH2           1 RES     
     256 CH2         24.4473    39.6170    67.9451 CH2           1 RES     
     257 CH2         25.7344    38.8266    67.6445 CH2           1 RES     
     258 CH2         25.8005    38.5047    66.1400 CH2           1 RES     
     259 CH2         27.0876    37.7144    65.8395 CH2           1 RES     
     260 CH2         27.1537    37.3925    64.3349 CH2           1 RES     
     261 CH2         28.4408    36.6022    64.0344 CH2           1 RES     
     262 CH2         28.5069    36.2803    62.5299 CH2           1 RES     
     263 CH2         29.7940    35.4899    62.2293 CH2           1 RES     
     264 CH2         29.8601    35.1681    60.7248 CH2           1 RES     
     265 CH2         31.1472    34.3777    60.4242 CH2           1 RES     
     266 CH2         31.2134    34.0558    58.9197 CH2           1 RES     
     267 CH2         32.5005    33.2655    58.6192 CH2           1 RES     
     268 CH2         32.5666    32.9436    57.1146 CH2           1 RES     
     269 CH2         33.8537    32.1533    56.8141 CH2           1 RES     
     270 CH3         33.9168    31.8460    55.3780 CH3           1 RES     
     271 CH3         43.0086    43.5374    80.0760 CH3           1 RES     
     272 CH3         40.7653    43.1018    79.5184 CH3           1 RES     
     273 CH3         41.2821    44.4540    81.1577 CH3           1 RES     
     274 NL          41.6559    43.9903    79.9762 NL            1 RES     
     275 CH2         41.6383    45.1397    79.1907 CH2           1 RES     
     276 CH2         42.0755    44.5665    77.8299 CH2           1 RES     
     277 OA          42.1227    45.6582    76.8242 OA            1 RES     
     278 P           40.6829    45.7567    76.1335 P             1 RES     
     279 OM          40.4185    44.3529    75.4129 OM            1 RES     
     280 OM          39.6383    46.1165    77.2908 OM            1 RES     
     281 OA          40.6937    46.9253    75.0405 OA            1 RES     
     282 CH2         39.3452    46.9874    74.4219 CH2           1 RES     
     283 CH1         39.3895    47.4183    73.1346 CH1           1 RES     
     284 OE          38.9152    46.0612    72.8279 OE            1 RES     
     285 C           39.1532    45.3535    71.5269 C             1 RES     
     286 O           39.2288    44.1322    71.4018 O             1 RES     
     287 CH2         39.4496    46.4069    70.6453 CH2           1 RES     
     288 CH2         39.8250    45.6567    69.3539 CH2           1 RES     
     289 CH2         40.3543    46.6598    68.3121 CH2           1 RES     
     290 CH2         40.7297    45.9096    67.0206 CH2           1 RES     
     291 CH2         41.2590    46.9127    65.9789 CH2           1 RES     
     292 CH2         41.6345    46.1626    64.6874 CH2           1 RES     
     293 CH2         42.1638    47.1656    63.6456 CH2           1 RES     
     294 CH2         42.5392    46.4155    62.3542 CH2           1 RES     
     295 CH2         43.0685    47.4186    61.3124 CH2           1 RES     
     296 CH2         43.4439    46.6684    60.0209 CH2           1 RES     
     297 CH2         43.9732    47.6715    58.9791 CH2           1 RES     
     298 CH2         44.3486    46.9213    57.6877 CH2           1 RES     
     299 CH2         44.8779    47.9244    56.6459 CH2           1 RES     
     300 CH2         45.2534    47.1743    55.3544 CH2           1 RES     
     301 CH2         45.7827    48.1774    54.3127 CH2           1 RES     
     302 CH2         46.1581    47.4272    53.0212 CH2           1 RES     
     303 CH3         46.6633    48.3847    52.0268 CH3           1 RES     
     304 CH2         40.8612    47.5576    72.7027 CH2           1 RES     
     305 OE          40.9173    46.9505    71.3713 OE            1 RES     
     306 C           42.3773    47.1617    71.0996 C             1 RES     
     307 O           43.1593    47.7051    71.8780 O             1 RES     
     308 CH2         42.5031    46.7905    69.7501 CH2           1 RES     
     309 CH2         43.9718    47.1427    69.4496 CH2           1 RES     
     310 CH2         44.2463    46.9620    67.9451 CH2           1 RES     
     311 CH2         45.7151    47.3142    67.6445 CH2           1 RES     
     312 CH2         45.9895    47.1335    66.1400 CH2           1 RES     
     313 CH2         47.4583    47.4857    65.8395 CH2           1 RES     
     314 CH2         47.7327    47.3050    64.3349 CH2           1 RES     
     315 CH2         49.2015    47.6572    64.0344 CH2           1 RES     
     316 CH2         49.4760    47.4765    62.5299 CH2           1 RES     
     317 CH2         50.9447    47.8287    62.2293 CH2           1 RES     
     318 CH2         51.2192    47.6480    60.7248 CH2           1 RES     
     319 CH2         52.6879    48.0002    60.4242 CH2           1 RES     
     320 CH2         52.9624    47.8195    58.9197 CH2           1 RES     
     321 CH2         54.4312    48.1717    58.6192 CH2           1 RES     
     322 CH2         54.7056    47.9910    57.1146 CH2           1 RES     
     323 CH2         56.1744    48.3432    56.8141 CH2           1 RES     
     324 CH3         56.4364    48.1707    55.3780 CH3           1 RES     
     325 CH3         26.6143    21.6783    80.0760 CH3           1 RES     
     326 CH3         24.3304    21.6023    79.5184 CH3           1 RES     
     327 CH3         25.0541    22.8560    81.1577 CH3           1 RES     
     328 NL          25.3501    22.3391    79.9762 NL            1 RES     
     329 CH2         25.5142    23.4769    79.1907 CH2           1 RES     
     330 CH2         25.8553    22.8419    77.8299 CH2           1 RES     
     331 OA          26.0743    23.9124    76.8242 OA            1 RES     
     332 P           24.6681    24.2370    76.1335 P             1 RES     
     333 OM          24.1854    22.8925    75.4129 OM            1 RES     
     334 OM          23.6934    24.7572    77.2908 OM            1 RES     
     335 OA          24.8632    25.3891    75.0405 OA            1 RES     
     336 CH2         23.5414    25.6634    74.4219 CH2           1 RES     
     337 CH1         23.6533    26.0819    73.1346 CH1           1 RES     
     338 OE          22.9706    24.8167    72.8279 OE            1 RES     
     339 C           23.0939    24.0803    71.5269 C             1 RES     
     340 O           22.9758    22.8624    71.4018 O             1 RES     
     341 CH2         23.5529    25.0736    70.6453 CH2           1 RES     
     342 CH2         23.8052    24.2736    69.3539 CH2           1 RES     
     343 CH2         24.4862    25.1806    68.3121 CH2           1 RES     
     344 CH2         24.7385    24.3806    67.0206 CH2           1 RES     
     345 CH2         25.4195    25.2875    65.9789 CH2           1 RES     
     346 CH2         25.6718    24.4875    64.6874 CH2           1 RES     
     347 CH2         26.3528    25.3944    63.6456 CH2           1 RES     
     348 CH2         26.6051    24.5944    62.3542 CH2           1 RES     
     349 CH2         27.2861    25.5014    61.3124 CH2           1 RES     
     350 CH2         27.5384    24.7014    60.0209 CH2           1 RES     
     351 CH2         28.2194    25.6083    58.9791 CH2           1 RES     
     352 CH2         28.4717    24.8083    57.6877 CH2           1 RES     
     353 CH2         29.1527    25.7152    56.6459 CH2           1 RES     
     354 CH2         29.4051    24.9152    55.3544 CH2           1 RES     
     355 CH2         30.0861    25.8222    54.3127 CH2           1 RES     
     356 CH2         30.3384    25.0222    53.0212 CH2           1 RES     
     357 CH3         30.9884    25.8879    52.0268 CH3           1 RES     
     358 CH2         25.1284    25.9871    72.7027 CH2           1 RES     
     359 OE          25.0880    25.3788    71.3713 OE            1 RES     
     360 C           26.5630    25.3568    71.0996 C             1 RES     
     361 O           27.4211    25.7700    71.8780 O             1 RES     
     362 CH2         26.6287    24.9705    69.7501 CH2           1 RES     
     363 CH2         28.1346    25.0864    69.4496 CH2           1 RES     
     364 CH2         28.3771    24.8646    67.9451 CH2           1 RES     
     365 CH2         29.8830    24.9805    67.6445 CH2           1 RES     
     366 CH2         30.1255    24.7588    66.1400 CH2           1 RES     
     367 CH2         31.6315    24.8747    65.8395 CH2           1 RES     
     368 CH2         31.8740    24.6530    64.3349 CH2           1 RES     
     369 CH2         33.3799    24.7689    64.0344 CH2           1 RES     
     370 CH2         33.6224    24.5471    62.5299 CH2           1 RES     
     371 CH2         35.1284    24.6630    62.2293 CH2           1 RES     
     372 CH2         35.3709    24.4413    60.7248 CH2           1 RES     
     373 CH2         36.8768    24.5572    60.4242 CH2           1 RES     
     374 CH2         37.1193    24.3354    58.9197 CH2           1 RES     
     375 CH2         38.6252    24.4513    58.6192 CH2           1 RES     
     376 CH2         38.8677    24.2296    57.1146 CH2           1 RES     
     377 CH2         40.3737    24.3455    56.8141 CH2           1 RES     
     378 CH3         40.6051    24.1338    55.3780 CH3           1 RES     
     379 CH3         48.4734    27.1431    80.0760 CH3           1 RES     
     380 CH3         46.2443    27.6464    79.5184 CH3           1 RES     
     381 CH3         47.2613    28.6766    81.1577 CH3           1 RES     
     382 NL          47.4170    28.1017    79.9762 NL            1 RES     
     383 CH2         47.8632    29.1612    79.1907 CH2           1 RES     
     384 CH2         48.0329    28.4606    77.8299 CH2           1 RES     
     385 OA          48.5152    29.4411    76.8242 OA            1 RES     
     386 P           47.2365    30.1104    76.1335 P             1 RES     
     387 OM          46.4299    28.9313    75.4129 OM            1 RES     
     388 OM          46.4248    30.8599    77.2908 OM            1 RES     
     389 OA          47.7163    31.1759    75.0405 OA            1 RES     
     390 CH2         46.5067    31.7751    74.4219 CH2           1 RES     
     391 CH1         46.7206    32.1518    73.1346 CH1           1 RES     
     392 OE          45.7405    31.1000    72.8279 OE            1 RES     
     393 C           45.6738    30.3563    71.5269 C             1 RES     
     394 O           45.2519    29.2078    71.4018 O             1 RES     
     395 CH2         46.3688    31.2016    70.6453 CH2           1 RES     
     396 CH2         46.4108    30.3637    69.3539 CH2           1 RES     
     397 CH2         47.2988    31.0693    68.3121 CH2           1 RES     
     398 CH2         47.3409    30.2315    67.0206 CH2           1 RES     
     399 CH2         48.2289    30.9370    65.9789 CH2           1 RES     
     400 CH2         48.2710    30.0992    64.6874 CH2           1 RES     
     401 CH2         49.1590    30.8048    63.6456 CH2           1 RES     
     402 CH2         49.2010    29.9670    62.3542 CH2           1 RES     
     403 CH2         50.0890    30.6725    61.3124 CH2           1 RES     
     404 CH2         50.1311    29.8347    60.0209 CH2           1 RES     
     405 CH2         51.0191    30.5402    58.9791 CH2           1 RES     
     406 CH2         51.0611    29.7024    57.6877 CH2           1 RES     
     407 CH2         51.9491    30.4080    56.6459 CH2           1 RES     
     408 CH2         51.9912    29.5702    55.3544 CH2           1 RES     
     409 CH2         52.8792    30.2757    54.3127 CH2           1 RES     
     410 CH2         52.9213    29.4379    53.0212 CH2           1 RES     
     411 CH3         53.7689    30.1114    52.0268 CH3           1 RES     
     412 CH2         48.1240    31.6875    72.7027 CH2           1 RES     
     413 OE          47.9312    31.1091    71.3713 OE            1 RES     
     414 C           49.3529    30.7153    71.0996 C             1 RES     
     415 O           50.2874    30.8983    71.8780 O             1 RES     
     416 CH2         49.3188    30.3249    69.7501 CH2           1 RES     
     417 CH2         50.8052    30.0567    69.4496 CH2           1 RES     
     418 CH2         50.9838    29.7809    67.9451 CH2           1 RES     
     419 CH2         52.4702    29.5127    67.6445 CH2           1 RES     
     420 CH2         52.6488    29.2368    66.1400 CH2           1 RES     
     421 CH2         54.1352    28.9686    65.8395 CH2           1 RES     
     422 CH2         54.3138    28.6928    64.3349 CH2           1 RES     
     423 CH2         55.8002    28.4246    64.0344 CH2           1 RES     
     424 CH2         55.9789    28.1488    62.5299 CH2           1 RES     
     425 CH2         57.4652    27.8806    62.2293 CH2           1 RES     
     426 CH2         57.6439    27.6048    60.7248 CH2           1 RES     
     427 CH2         59.1303    27.3366    60.4242 CH2           1 RES     
     428 CH2         59.3089    27.0608    58.9197 CH2           1 RES     
     429 CH2         60.7953    26.7926    58.6192 CH2           1 RES     
     430 CH2         60.9739    26.5167    57.1146 CH2           1 RES     
     431 CH2         62.4603    26.2485    56.8141 CH2           1 RES     
     432 CH3         62.6308    25.9853    55.3780 CH3           1 RES     
     433 CH3         32.0791    16.2135    80.0760 CH3           1 RES     
     434 CH3         29.7977    16.0824    79.5184 CH3           1 RES     
     435 CH3         30.4909    17.3532    81.1577 CH3           1 RES     
     436 NL          30.7992    16.8436    79.9762 NL            1 RES     
     437 CH2         30.9358    17.9850    79.1907 CH2           1 RES     
     438 CH2         31.2922    17.3584    77.8299 CH2           1 RES     
     439 OA          31.4853    18.4339    76.8242 OA            1 RES     
     440 P           30.0716    18.7245    76.1335 P             1 RES     
     441 OM          29.6216    17.3687    75.4129 OM            1 RES     
     442 OM          29.0846    19.2209    77.2908 OM            1 RES     
     443 OA          30.2389    19.8810    75.0405 OA            1 RES     
     444 CH2         28.9108    20.1232    74.4219 CH2           1 RES     
     445 CH1         29.0125    20.5443    73.1346 CH1           1 RES     
     446 OE          28.3606    19.2630    72.8279 OE            1 RES     
     447 C           28.5017    18.5298    71.5269 C             1 RES     
     448 O           28.4130    17.3093    71.4018 O             1 RES     
     449 CH2         28.9365    19.5339    70.6453 CH2           1 RES     
     450 CH2         29.2081    18.7402    69.3539 CH2           1 RES     
     451 CH2         29.8670    19.6634    68.3121 CH2           1 RES     
     452 CH2         30.1385    18.8697    67.0206 CH2           1 RES     
     453 CH2         30.7974    19.7928    65.9789 CH2           1 RES     
     454 CH2         31.0690    18.9991    64.6874 CH2           1 RES     
     455 CH2         31.7279    19.9223    63.6456 CH2           1 RES     
     456 CH2         31.9994    19.1286    62.3542 CH2           1 RES     
     457 CH2         32.6583    20.0517    61.3124 CH2           1 RES     
     458 CH2         32.9299    19.2580    60.0209 CH2           1 RES     
     459 CH2         33.5888    20.1812    58.9791 CH2           1 RES     
     460 CH2         33.8603    19.3875    57.6877 CH2           1 RES     
     461 CH2         34.5192    20.3106    56.6459 CH2           1 RES     
     462 CH2         34.7908    19.5169    55.3544 CH2           1 RES     
     463 CH2         35.4497    20.4401    54.3127 CH2           1 RES     
     464 CH2         35.7213    19.6464    53.0212 CH2           1 RES     
     465 CH3         36.3502    20.5276    52.0268 CH3           1 RES     
     466 CH2         30.4895    20.4852    72.7027 CH2           1 RES     
     467 OE          30.4638    19.8760    71.3713 OE            1 RES     
     468 C           31.9389    19.8897    71.0996 C             1 RES     
     469 O           32.7867    20.3235    71.8780 O             1 RES     
     470 CH2         32.0139    19.5051    69.7501 CH2           1 RES     
     471 CH2         33.5166    19.6574    69.4496 CH2           1 RES     
     472 CH2         33.7644    19.4415    67.9451 CH2           1 RES     
     473 CH2         35.2671    19.5938    67.6445 CH2           1 RES     
     474 CH2         35.5149    19.3780    66.1400 CH2           1 RES     
     475 CH2         37.0176    19.5302    65.8395 CH2           1 RES     
     476 CH2         37.2653    19.3144    64.3349 CH2           1 RES     
     477 CH2         38.7680    19.4666    64.0344 CH2           1 RES     
     478 CH2         39.0158    19.2508    62.5299 CH2           1 RES     
     479 CH2         40.5185    19.4031    62.2293 CH2           1 RES     
     480 CH2         40.7663    19.1873    60.7248 CH2           1 RES     
     481 CH2         42.2690    19.3395    60.4242 CH2           1 RES     
     482 CH2         42.5168    19.1237    58.9197 CH2           1 RES     
     483 CH2         44.0195    19.2759    58.6192 CH2           1 RES     
     484 CH2         44.2673    19.0601    57.1146 CH2           1 RES     
     485 CH2         45.7700    19.2124    56.8141 CH2           1 RES     
     486 CH3         46.0065    19.0064    55.3780 CH3           1 RES     
     487 CH3         10.2200    10.7488    80.0760 CH3           1 RES     
     488 CH3          7.9975    11.2803    79.5184 CH3           1 RES     
     489 CH3          9.0274    12.2975    81.1577 CH3           1 RES     
     490 NL           9.1759    11.7207    79.9762 NL            1 RES     
     491 CH2          9.6354    12.7745    79.1907 CH2           1 RES     
     492 CH2          9.7962    12.0718    77.8299 CH2           1 RES     
     493 OA          10.2909    13.0461    76.8242 OA            1 RES     
     494 P            9.0208    13.7315    76.1335 P             1 RES     
     495 OM           8.1994    12.5628    75.4129 OM            1 RES     
     496 OM           8.2187    14.4912    77.2908 OM            1 RES     
     497 OA           9.5141    14.7908    75.0405 OA            1 RES     
     498 CH2          8.3121    15.4054    74.4219 CH2           1 RES     
     499 CH1          8.5308    15.7793    73.1346 CH1           1 RES     
     500 OE           7.5375    14.7400    72.8279 OE            1 RES     
     501 C            7.4613    13.9972    71.5269 C             1 RES     
     502 O            7.0249    12.8541    71.4018 O             1 RES     
     503 CH2          8.1670    14.8336    70.6453 CH2           1 RES     
     504 CH2          8.1984    13.9953    69.3539 CH2           1 RES     
     505 CH2          9.0953    14.6896    68.3121 CH2           1 RES     
     506 CH2          9.1268    13.8513    67.0206 CH2           1 RES     
     507 CH2         10.0236    14.5455    65.9789 CH2           1 RES     
     508 CH2         10.0551    13.7072    64.6874 CH2           1 RES     
     509 CH2         10.9519    14.4015    63.6456 CH2           1 RES     
     510 CH2         10.9834    13.5632    62.3542 CH2           1 RES     
     511 CH2         11.8802    14.2574    61.3124 CH2           1 RES     
     512 CH2         11.9117    13.4192    60.0209 CH2           1 RES     
     513 CH2         12.8085    14.1134    58.9791 CH2           1 RES     
     514 CH2         12.8400    13.2751    57.6877 CH2           1 RES     
     515 CH2         13.7369    13.9694    56.6459 CH2           1 RES     
     516 CH2         13.7683    13.1311    55.3544 CH2           1 RES     
     517 CH2         14.6652    13.8253    54.3127 CH2           1 RES     
     518 CH2         14.6966    12.9871    53.0212 CH2           1 RES     
     519 CH3         15.5527    13.6497    52.0268 CH3           1 RES     
     520 CH2          9.9282    15.2973    72.7027 CH2           1 RES     
     521 OE           9.7281    14.7213    71.3713 OE            1 RES     
     522 C           11.1447    14.3095    71.0996 C             1 RES     
     523 O           12.0815    14.4807    71.8780 O             1 RES     
     524 CH2         11.1057    13.9196    69.7501 CH2           1 RES     
     525 CH2         12.5885    13.6326    69.4496 CH2           1 RES     
     526 CH2         12.7636    13.3545    67.9451 CH2           1 RES     
     527 CH2         14.2465    13.0675    67.6445 CH2           1 RES     
     528 CH2         14.4216    12.7895    66.1400 CH2           1 RES     
     529 CH2         15.9045    12.5024    65.8395 CH2           1 RES     
     530 CH2         16.0796    12.2244    64.3349 CH2           1 RES     
     531 CH2         17.5625    11.9374    64.0344 CH2           1 RES     
     532 CH2         17.7376    11.6593    62.5299 CH2           1 RES     
     533 CH2         19.2205    11.3723    62.2293 CH2           1 RES     
     534 CH2         19.3956    11.0942    60.7248 CH2           1 RES     
     535 CH2         20.8785    10.8072    60.4242 CH2           1 RES     
     536 CH2         21.0536    10.5292    58.9197 CH2           1 RES     
     537 CH2         22.5365    10.2421    58.6192 CH2           1 RES     
     538 CH2         22.7116     9.9641    57.1146 CH2           1 RES     
     539 CH2         24.1944     9.6770    56.8141 CH2           1 RES     
     540 CH3         24.3616     9.4116    55.3780 CH3           1 RES     
     541 CH3         43.0086    10.7488    80.0760 CH3           1 RES     
     542 CH3         41.0518    11.9291    79.5184 CH3           1 RES     
     543 CH3         42.3417    12.5862    81.1577 CH3           1 RES     
     544 NL          42.3083    11.9915    79.9762 NL            1 RES     
     545 CH2         43.0657    12.8564    79.1907 CH2           1 RES     
     546 CH2         43.0059    12.1380    77.8299 CH2           1 RES     
     547 OA          43.7726    12.9165    76.8242 OA            1 RES     
     548 P           42.7701    13.9547    76.1335 P             1 RES     
     549 OM          41.6330    13.0900    75.4129 OM            1 RES     
     550 OM          42.2361    14.9218    77.2908 OM            1 RES     
     551 OA          43.5614    14.8146    75.0405 OA            1 RES     
     552 CH2         42.6022    15.7646    74.4219 CH2           1 RES     
     553 CH1         42.9240    16.0547    73.1346 CH1           1 RES     
     554 OE          41.6623    15.3654    72.8279 OE            1 RES     
     555 C           41.3646    14.6807    71.5269 C             1 RES     
     556 O           40.6021    13.7237    71.4018 O             1 RES     
     557 CH2         42.2906    15.2637    70.6453 CH2           1 RES     
     558 CH2         42.0664    14.4554    69.3539 CH2           1 RES     
     559 CH2         43.1316    14.8451    68.3121 CH2           1 RES     
     560 CH2         42.9074    14.0367    67.0206 CH2           1 RES     
     561 CH2         43.9725    14.4264    65.9789 CH2           1 RES     
     562 CH2         43.7483    13.6180    64.6874 CH2           1 RES     
     563 CH2         44.8135    14.0077    63.6456 CH2           1 RES     
     564 CH2         44.5893    13.1993    62.3542 CH2           1 RES     
     565 CH2         45.6544    13.5890    61.3124 CH2           1 RES     
     566 CH2         45.4302    12.7806    60.0209 CH2           1 RES     
     567 CH2         46.4954    13.1703    58.9791 CH2           1 RES     
     568 CH2         46.2712    12.3620    57.6877 CH2           1 RES     
     569 CH2         47.3363    12.7516    56.6459 CH2           1 RES     
     570 CH2         47.1122    11.9433    55.3544 CH2           1 RES     
     571 CH2         48.1773    12.3329    54.3127 CH2           1 RES     
     572 CH2         47.9531    11.5246    53.0212 CH2           1 RES     
     573 CH3         48.9698    11.8965    52.0268 CH3           1 RES     
     574 CH2         44.1095    15.1717    72.7027 CH2           1 RES     
     575 OE          43.7442    14.6835    71.3713 OE            1 RES     
     576 C           44.9693    13.8616    71.0996 C             1 RES     
     577 O           45.9139    13.7408    71.8780 O             1 RES     
     578 CH2         44.8139    13.5019    69.7501 CH2           1 RES     
     579 CH2         46.1399    12.7788    69.4496 CH2           1 RES     
     580 CH2         46.2225    12.4608    67.9451 CH2           1 RES     
     581 CH2         47.5486    11.7377    67.6445 CH2           1 RES     
     582 CH2         47.6312    11.4196    66.1400 CH2           1 RES     
     583 CH2         48.9572    10.6966    65.8395 CH2           1 RES     
     584 CH2         49.0398    10.3785    64.3349 CH2           1 RES     
     585 CH2         50.3659     9.6554    64.0344 CH2           1 RES     
     586 CH2         50.4485     9.3374    62.5299 CH2           1 RES     
     587 CH2         51.7745     8.6143    62.2293 CH2           1 RES     
     588 CH2         51.8571     8.2963    60.7248 CH2           1 RES     
     589 CH2         53.1832     7.5732    60.4242 CH2           1 RES     
     590 CH2         53.2658     7.2551    58.9197 CH2           1 RES     
     591 CH2         54.5918     6.5321    58.6192 CH2           1 RES     
     592 CH2         54.6744     6.2140    57.1146 CH2           1 RES     
     593 CH2         56.0005     5.4910    56.8141 CH2           1 RES     
     594 CH3         56.0793     5.1874    55.3780 CH3           1 RES     
     595 CH3         15.6848    10.7488    80.0760 CH3           1 RES     
     596 CH3         13.4119    10.5122    79.5184 CH3           1 RES     
     597 CH3         14.0456    11.8137    81.1577 CH3           1 RES     
     598 NL          14.3771    11.3189    79.9762 NL            1 RES     
     599 CH2         14.4607    12.4654    79.1907 CH2           1 RES     
     600 CH2         14.8457    11.8560    77.8299 CH2           1 RES     
     601 OA          14.9888    12.9393    76.8242 OA            1 RES     
     602 P           13.5632    13.1641    76.1335 P             1 RES     
     603 OM          13.1764    11.7889    75.4129 OM            1 RES     
     604 OM          12.5543    13.6143    77.2908 OM            1 RES     
     605 OA          13.6768    14.3271    75.0405 OA            1 RES     
     606 CH2         12.3389    14.5076    74.4219 CH2           1 RES     
     607 CH1         12.4210    14.9330    73.1346 CH1           1 RES     
     608 OE          11.8292    13.6228    72.8279 OE            1 RES     
     609 C           12.0040    12.8969    71.5269 C             1 RES     
     610 O           11.9719    11.6737    71.4018 O             1 RES     
     611 CH2         12.3919    13.9201    70.6453 CH2           1 RES     
     612 CH2         12.6999    13.1398    69.3539 CH2           1 RES     
     613 CH2         13.3153    14.0925    68.3121 CH2           1 RES     
     614 CH2         13.6234    13.3122    67.0206 CH2           1 RES     
     615 CH2         14.2388    14.2649    65.9789 CH2           1 RES     
     616 CH2         14.5468    13.4846    64.6874 CH2           1 RES     
     617 CH2         15.1623    14.4373    63.6456 CH2           1 RES     
     618 CH2         15.4703    13.6570    62.3542 CH2           1 RES     
     619 CH2         16.0857    14.6097    61.3124 CH2           1 RES     
     620 CH2         16.3937    13.8294    60.0209 CH2           1 RES     
     621 CH2         17.0092    14.7820    58.9791 CH2           1 RES     
     622 CH2         17.3172    14.0018    57.6877 CH2           1 RES     
     623 CH2         17.9327    14.9544    56.6459 CH2           1 RES     
     624 CH2         18.2407    14.1742    55.3544 CH2           1 RES     
     625 CH2         18.8561    15.1268    54.3127 CH2           1 RES     
     626 CH2         19.1641    14.3465    53.0212 CH2           1 RES     
     627 CH3         19.7516    15.2559    52.0268 CH3           1 RES     
     628 CH2         13.8992    14.9423    72.7027 CH2           1 RES     
     629 OE          13.9017    14.3326    71.3713 OE            1 RES     
     630 C           15.3746    14.4145    71.0996 C             1 RES     
     631 O           16.2014    14.8871    71.8780 O             1 RES     
     632 CH2         15.4673    14.0338    69.7501 CH2           1 RES     
     633 CH2         16.9613    14.2554    69.4496 CH2           1 RES     
     634 CH2         17.2188    14.0513    67.9451 CH2           1 RES     
     635 CH2         18.7129    14.2730    67.6445 CH2           1 RES     
     636 CH2         18.9704    14.0688    66.1400 CH2           1 RES     
     637 CH2         20.4644    14.2905    65.8395 CH2           1 RES     
     638 CH2         20.7219    14.0864    64.3349 CH2           1 RES     
     639 CH2         22.2160    14.3080    64.0344 CH2           1 RES     
     640 CH2         22.4735    14.1039    62.5299 CH2           1 RES     
     641 CH2         23.9675    14.3255    62.2293 CH2           1 RES     
     642 CH2         24.2250    14.1214    60.7248 CH2           1 RES     
     643 CH2         25.7191    14.3431    60.4242 CH2           1 RES     
     644 CH2         25.9766    14.1389    58.9197 CH2           1 RES     
     645 CH2         27.4706    14.3606    58.6192 CH2           1 RES     
     646 CH2         27.7281    14.1565    57.1146 CH2           1 RES     
     647 CH2         29.2222    14.3781    56.8141 CH2           1 RES     
     648 CH3         29.4680    14.1833    55.3780 CH3           1 RES     
     649 CH3         10.2200    16.2135    80.0760 CH3           1 RES     
     650 CH3          8.4676    17.6802    79.5184 CH3           1 RES     
     651 CH3          9.8430    18.1316    81.1577 CH3           1 RES     
     652 NL           9.7187    17.5491    79.9762 NL            1 RES     
     653 CH2         10.5998    18.2874    79.1907 CH2           1 RES     
     654 CH2         10.4305    17.5867    77.8299 CH2           1 RES     
     655 OA          11.3076    18.2383    76.8242 OA            1 RES     
     656 P           10.4764    19.4180    76.1335 P             1 RES     
     657 OM           9.2200    18.7381    75.4129 OM            1 RES     
     658 OM          10.0970    20.4557    77.2908 OM            1 RES     
     659 OA          11.3902    20.1464    75.0405 OA            1 RES     
     660 CH2         10.5882    21.2323    74.4219 CH2           1 RES     
     661 CH1         10.9507    21.4696    73.1346 CH1           1 RES     
     662 OE           9.5982    20.9821    72.8279 OE            1 RES     
     663 C            9.1989    20.3512    71.5269 C             1 RES     
     664 O            8.2986    19.5225    71.4018 O             1 RES     
     665 CH2         10.2034    20.7852    70.6453 CH2           1 RES     
     666 CH2          9.8578    20.0209    69.3539 CH2           1 RES     
     667 CH2         10.9702    20.2424    68.3121 CH2           1 RES     
     668 CH2         10.6246    19.4781    67.0206 CH2           1 RES     
     669 CH2         11.7369    19.6996    65.9789 CH2           1 RES     
     670 CH2         11.3913    18.9353    64.6874 CH2           1 RES     
     671 CH2         12.5036    19.1569    63.6456 CH2           1 RES     
     672 CH2         12.1580    18.3925    62.3542 CH2           1 RES     
     673 CH2         13.2704    18.6141    61.3124 CH2           1 RES     
     674 CH2         12.9248    17.8497    60.0209 CH2           1 RES     
     675 CH2         14.0371    18.0713    58.9791 CH2           1 RES     
     676 CH2         13.6915    17.3069    57.6877 CH2           1 RES     
     677 CH2         14.8038    17.5285    56.6459 CH2           1 RES     
     678 CH2         14.4583    16.7641    55.3544 CH2           1 RES     
     679 CH2         15.5706    16.9857    54.3127 CH2           1 RES     
     680 CH2         15.2250    16.2213    53.0212 CH2           1 RES     
     681 CH3         16.2867    16.4328    52.0268 CH3           1 RES     
     682 CH2         11.9866    20.4151    72.7027 CH2           1 RES     
     683 OE          11.5508    19.9887    71.3713 OE            1 RES     
     684 C           12.6352    18.9886    71.0996 C             1 RES     
     685 O           13.5501    18.7242    71.8780 O             1 RES     
     686 CH2         12.4264    18.6570    69.7501 CH2           1 RES     
     687 CH2         13.6258    17.7390    69.4496 CH2           1 RES     
     688 CH2         13.6586    17.4120    67.9451 CH2           1 RES     
     689 CH2         14.8580    16.4940    67.6445 CH2           1 RES     
     690 CH2         14.8908    16.1670    66.1400 CH2           1 RES     
     691 CH2         16.0901    15.2490    65.8395 CH2           1 RES     
     692 CH2         16.1229    14.9220    64.3349 CH2           1 RES     
     693 CH2         17.3223    14.0040    64.0344 CH2           1 RES     
     694 CH2         17.3551    13.6771    62.5299 CH2           1 RES     
     695 CH2         18.5545    12.7590    62.2293 CH2           1 RES     
     696 CH2         18.5873    12.4321    60.7248 CH2           1 RES     
     697 CH2         19.7867    11.5141    60.4242 CH2           1 RES     
     698 CH2         19.8195    11.1871    58.9197 CH2           1 RES     
     699 CH2         21.0189    10.2691    58.6192 CH2           1 RES     
     700 CH2         21.0517     9.9421    57.1146 CH2           1 RES     
     701 CH2         22.2510     9.0241    56.8141 CH2           1 RES     
     702 CH3         22.2823     8.7120    55.3780 CH3           1 RES     
     703 CH3         15.6848    21.6783    80.0760 CH3           1 RES     
     704 CH3         13.4323    22.0639    79.5184 CH3           1 RES     
     705 CH3         14.3938    23.1461    81.1577 CH3           1 RES     
     706 NL          14.5795    22.5802    79.9762 NL            1 RES     
     707 CH2         14.9695    23.6616    79.1907 CH2           1 RES     
     708 CH2         15.1757    22.9709    77.8299 CH2           1 RES     
     709 OA          15.6058    23.9754    76.8242 OA            1 RES     
     710 P           14.2938    24.5766    76.1335 P             1 RES     
     711 OM          13.5502    23.3568    75.4129 OM            1 RES     
     712 OM          13.4439    25.2824    77.2908 OM            1 RES     
     713 OA          14.7171    25.6658    75.0405 OA            1 RES     
     714 CH2         13.4776    26.2007    74.4219 CH2           1 RES     
     715 CH1         13.6714    26.5881    73.1346 CH1           1 RES     
     716 OE          12.7479    25.4863    72.8279 OE            1 RES     
     717 C           12.7203    24.7402    71.5269 C             1 RES     
     718 O           12.3593    23.5710    71.4018 O             1 RES     
     719 CH2         13.3700    25.6207    70.6453 CH2           1 RES     
     720 CH2         13.4560    24.7863    69.3539 CH2           1 RES     
     721 CH2         14.3057    25.5375    68.3121 CH2           1 RES     
     722 CH2         14.3917    24.7030    67.0206 CH2           1 RES     
     723 CH2         15.2415    25.4542    65.9789 CH2           1 RES     
     724 CH2         15.3274    24.6198    64.6874 CH2           1 RES     
     725 CH2         16.1772    25.3709    63.6456 CH2           1 RES     
     726 CH2         16.2632    24.5365    62.3542 CH2           1 RES     
     727 CH2         17.1129    25.2877    61.3124 CH2           1 RES     
     728 CH2         17.1989    24.4532    60.0209 CH2           1 RES     
     729 CH2         18.0486    25.2044    58.9791 CH2           1 RES     
     730 CH2         18.1346    24.3700    57.6877 CH2           1 RES     
     731 CH2         18.9843    25.1212    56.6459 CH2           1 RES     
     732 CH2         19.0703    24.2867    55.3544 CH2           1 RES     
     733 CH2         19.9201    25.0379    54.3127 CH2           1 RES     
     734 CH2         20.0060    24.2035    53.0212 CH2           1 RES     
     735 CH3         20.8172    24.9205    52.0268 CH3           1 RES     
     736 CH2         15.0973    26.1981    72.7027 CH2           1 RES     
     737 OE          14.9351    25.6104    71.3713 OE            1 RES     
     738 C           16.3755    25.2917    71.0996 C             1 RES     
     739 O           17.2992    25.5236    71.8780 O             1 RES     
     740 CH2         16.3620    24.9001    69.7501 CH2           1 RES     
     741 CH2         17.8604    24.7103    69.4496 CH2           1 RES     
     742 CH2         18.0533    24.4442    67.9451 CH2           1 RES     
     743 CH2         19.5517    24.2544    67.6445 CH2           1 RES     
     744 CH2         19.7445    23.9884    66.1400 CH2           1 RES     
     745 CH2         21.2429    23.7986    65.8395 CH2           1 RES     
     746 CH2         21.4358    23.5325    64.3349 CH2           1 RES     
     747 CH2         22.9342    23.3427    64.0344 CH2           1 RES     
     748 CH2         23.1271    23.0767    62.5299 CH2           1 RES     
     749 CH2         24.6255    22.8868    62.2293 CH2           1 RES     
     750 CH2         24.8184    22.6208    60.7248 CH2           1 RES     
     751 CH2         26.3168    22.4310    60.4242 CH2           1 RES     
     752 CH2         26.5097    22.1649    58.9197 CH2           1 RES     
     753 CH2         28.0081    21.9751    58.6192 CH2           1 RES     
     754 CH2         28.2009    21.7091    57.1146 CH2           1 RES     
     755 CH2         29.6993    21.5193    56.8141 CH2           1 RES     
     756 CH3         29.8834    21.2653    55.3780 CH3           1 RES     
     757 CH3         15.6848    16.2135    80.0760 CH3           1 RES     
     758 CH3         13.4102    16.4337    79.5184 CH3           1 RES     
     759 CH3         14.2901    17.5832    81.1577 CH3           1 RES     
     760 NL          14.5166    17.0323    79.9762 NL            1 RES     
     761 CH2         14.8266    18.1393    79.1907 CH2           1 RES     
     762 CH2         15.0827    17.4655    77.8299 CH2           1 RES     
     763 OA          15.4384    18.4987    76.8242 OA            1 RES     
     764 P           14.0860    19.0025    76.1335 P             1 RES     
     765 OM          13.4334    17.7317    75.4129 OM            1 RES     
     766 OM          13.1867    19.6444    77.2908 OM            1 RES     
     767 OA          14.4285    20.1197    75.0405 OA            1 RES     
     768 CH2         13.1533    20.5627    74.4219 CH2           1 RES     
     769 CH1         13.3183    20.9633    73.1346 CH1           1 RES     
     770 OE          12.4778    19.7969    72.8279 OE            1 RES     
     771 C           12.5047    19.0508    71.5269 C             1 RES     
     772 O           12.2300    17.8584    71.4018 O             1 RES     
     773 CH2         13.0884    19.9764    70.6453 CH2           1 RES     
     774 CH2         13.2350    19.1505    69.3539 CH2           1 RES     
     775 CH2         14.0277    19.9617    68.3121 CH2           1 RES     
     776 CH2         14.1743    19.1358    67.0206 CH2           1 RES     
     777 CH2         14.9670    19.9470    65.9789 CH2           1 RES     
     778 CH2         15.1136    19.1210    64.6874 CH2           1 RES     
     779 CH2         15.9063    19.9323    63.6456 CH2           1 RES     
     780 CH2         16.0529    19.1063    62.3542 CH2           1 RES     
     781 CH2         16.8456    19.9176    61.3124 CH2           1 RES     
     782 CH2         16.9923    19.0916    60.0209 CH2           1 RES     
     783 CH2         17.7849    19.9028    58.9791 CH2           1 RES     
     784 CH2         17.9316    19.0769    57.6877 CH2           1 RES     
     785 CH2         18.7242    19.8881    56.6459 CH2           1 RES     
     786 CH2         18.8709    19.0622    55.3544 CH2           1 RES     
     787 CH2         19.6635    19.8734    54.3127 CH2           1 RES     
     788 CH2         19.8102    19.0475    53.0212 CH2           1 RES     
     789 CH3         20.5667    19.8218    52.0268 CH3           1 RES     
     790 CH2         14.7689    20.6784    72.7027 CH2           1 RES     
     791 OE          14.6501    20.0804    71.3713 OE            1 RES     
     792 C           16.1099    19.8678    71.0996 C             1 RES     
     793 O           17.0141    20.1665    71.8780 O             1 RES     
     794 CH2         16.1250    19.4762    69.7501 CH2           1 RES     
     795 CH2         17.6332    19.3963    69.4496 CH2           1 RES     
     796 CH2         17.8450    19.1450    67.9451 CH2           1 RES     
     797 CH2         19.3533    19.0651    67.6445 CH2           1 RES     
     798 CH2         19.5650    18.8138    66.1400 CH2           1 RES     
     799 CH2         21.0733    18.7339    65.8395 CH2           1 RES     
     800 CH2         21.2851    18.4827    64.3349 CH2           1 RES     
     801 CH2         22.7934    18.4028    64.0344 CH2           1 RES     
     802 CH2         23.0051    18.1515    62.5299 CH2           1 RES     
     803 CH2         24.5134    18.0716    62.2293 CH2           1 RES     
     804 CH2         24.7252    17.8203    60.7248 CH2           1 RES     
     805 CH2         26.2335    17.7404    60.4242 CH2           1 RES     
     806 CH2         26.4452    17.4892    58.9197 CH2           1 RES     
     807 CH2         27.9535    17.4093    58.6192 CH2           1 RES     
     808 CH2         28.1653    17.1580    57.1146 CH2           1 RES     
     809 CH2         29.6736    17.0781    56.8141 CH2           1 RES     
     810 CH3         29.8757    16.8383    55.3780 CH3           1 RES     
     811 CH3         32.0791    21.6783    80.0760 CH3           1 RES     
     812 CH3         29.9791    22.5796    79.5184 CH3           1 RES     
     813 CH3         31.1669    23.4071    81.1577 CH3           1 RES     
     814 NL          31.2152    22.8135    79.9762 NL            1 RES     
     815 CH2         31.8471    23.7739    79.1907 CH2           1 RES     
     816 CH2         31.8862    23.0541    77.8299 CH2           1 RES     
     817 OA          32.5391    23.9302    76.8242 OA            1 RES     
     818 P           31.4040    24.8214    76.1335 P             1 RES     
     819 OM          30.3959    23.8092    75.4129 OM            1 RES     
     820 OM          30.7425    25.7063    77.2908 OM            1 RES     
     821 OA          32.0700    25.7815    75.0405 OA            1 RES     
     822 CH2         30.9899    26.5913    74.4219 CH2           1 RES     
     823 CH1         31.2689    26.9227    73.1346 CH1           1 RES     
     824 OE          30.1135    26.0672    72.8279 OE            1 RES     
     825 C           29.9123    25.3482    71.5269 C             1 RES     
     826 O           29.2880    24.2958    71.4018 O             1 RES     
     827 CH2         30.7497    26.0525    70.6453 CH2           1 RES     
     828 CH2         30.6383    25.2211    69.3539 CH2           1 RES     
     829 CH2         31.6401    25.7529    68.3121 CH2           1 RES     
     830 CH2         31.5287    24.9214    67.0206 CH2           1 RES     
     831 CH2         32.5304    25.4532    65.9789 CH2           1 RES     
     832 CH2         32.4190    24.6218    64.6874 CH2           1 RES     
     833 CH2         33.4208    25.1536    63.6456 CH2           1 RES     
     834 CH2         33.3094    24.3222    62.3542 CH2           1 RES     
     835 CH2         34.3112    24.8540    61.3124 CH2           1 RES     
     836 CH2         34.1998    24.0226    60.0209 CH2           1 RES     
     837 CH2         35.2015    24.5544    58.9791 CH2           1 RES     
     838 CH2         35.0901    23.7229    57.6877 CH2           1 RES     
     839 CH2         36.0919    24.2548    56.6459 CH2           1 RES     
     840 CH2         35.9805    23.4233    55.3544 CH2           1 RES     
     841 CH2         36.9822    23.9551    54.3127 CH2           1 RES     
     842 CH2         36.8708    23.1237    53.0212 CH2           1 RES     
     843 CH3         37.8270    23.6313    52.0268 CH3           1 RES     
     844 CH2         32.5641    26.2103    72.7027 CH2           1 RES     
     845 OE          32.2691    25.6767    71.3713 OE            1 RES     
     846 C           33.5951    25.0303    71.0996 C             1 RES     
     847 O           34.5474    25.0399    71.8780 O             1 RES     
     848 CH2         33.4904    24.6526    69.7501 CH2           1 RES     
     849 CH2         34.9030    24.1179    69.4496 CH2           1 RES     
     850 CH2         35.0284    23.8142    67.9451 CH2           1 RES     
     851 CH2         36.4409    23.2794    67.6445 CH2           1 RES     
     852 CH2         36.5663    22.9757    66.1400 CH2           1 RES     
     853 CH2         37.9788    22.4409    65.8395 CH2           1 RES     
     854 CH2         38.1042    22.1372    64.3349 CH2           1 RES     
     855 CH2         39.5168    21.6025    64.0344 CH2           1 RES     
     856 CH2         39.6421    21.2987    62.5299 CH2           1 RES     
     857 CH2         41.0547    20.7640    62.2293 CH2           1 RES     
     858 CH2         41.1800    20.4602    60.7248 CH2           1 RES     
     859 CH2         42.5926    19.9255    60.4242 CH2           1 RES     
     860 CH2         42.7179    19.6217    58.9197 CH2           1 RES     
     861 CH2         44.1305    19.0870    58.6192 CH2           1 RES     
     862 CH2         44.2559    18.7833    57.1146 CH2           1 RES     
     863 CH2         45.6684    18.2485    56.8141 CH2           1 RES     
     864 CH3         45.7881    17.9586    55.3780 CH3           1 RES     
     865 CH3         32.0791    32.6078    80.0760 CH3           1 RES     
     866 CH3         30.3007    34.0430    79.5184 CH3           1 RES     
     867 CH3         31.6679    34.5188    81.1577 CH3           1 RES     
     868 NL          31.5540    33.9342    79.9762 NL            1 RES     
     869 CH2         32.4219    34.6882    79.1907 CH2           1 RES     
     870 CH2         32.2651    33.9845    77.8299 CH2           1 RES     
     871 OA          33.1304    34.6517    76.8242 OA            1 RES     
     872 P           32.2782    35.8164    76.1335 P             1 RES     
     873 OM          31.0342    35.1142    75.4129 OM            1 RES     
     874 OM          31.8805    36.8472    77.2908 OM            1 RES     
     875 OA          33.1789    36.5609    75.0405 OA            1 RES     
     876 CH2         32.3577    37.6324    74.4219 CH2           1 RES     
     877 CH1         32.7159    37.8761    73.1346 CH1           1 RES     
     878 OE          31.3723    37.3645    72.8279 OE            1 RES     
     879 C           30.9843    36.7266    71.5269 C             1 RES     
     880 O           30.0990    35.8820    71.4018 O             1 RES     
     881 CH2         31.9810    37.1785    70.6453 CH2           1 RES     
     882 CH2         31.6491    36.4081    69.3539 CH2           1 RES     
     883 CH2         32.7572    36.6495    68.3121 CH2           1 RES     
     884 CH2         32.4254    35.8791    67.0206 CH2           1 RES     
     885 CH2         33.5335    36.1205    65.9789 CH2           1 RES     
     886 CH2         33.2017    35.3500    64.6874 CH2           1 RES     
     887 CH2         34.3098    35.5914    63.6456 CH2           1 RES     
     888 CH2         33.9780    34.8210    62.3542 CH2           1 RES     
     889 CH2         35.0861    35.0624    61.3124 CH2           1 RES     
     890 CH2         34.7542    34.2920    60.0209 CH2           1 RES     
     891 CH2         35.8624    34.5334    58.9791 CH2           1 RES     
     892 CH2         35.5305    33.7630    57.6877 CH2           1 RES     
     893 CH2         36.6387    34.0043    56.6459 CH2           1 RES     
     894 CH2         36.3068    33.2339    55.3544 CH2           1 RES     
     895 CH2         37.4150    33.4753    54.3127 CH2           1 RES     
     896 CH2         37.0831    32.7049    53.0212 CH2           1 RES     
     897 CH3         38.1409    32.9353    52.0268 CH3           1 RES     
     898 CH2         33.7705    36.8402    72.7027 CH2           1 RES     
     899 OE          33.3423    36.4062    71.3713 OE            1 RES     
     900 C           34.4444    35.4256    71.0996 C             1 RES     
     901 O           35.3638    35.1775    71.8780 O             1 RES     
     902 CH2         34.2415    35.0903    69.7501 CH2           1 RES     
     903 CH2         35.4571    34.1938    69.4496 CH2           1 RES     
     904 CH2         35.4957    33.8675    67.9451 CH2           1 RES     
     905 CH2         36.7113    32.9710    67.6445 CH2           1 RES     
     906 CH2         36.7499    32.6446    66.1400 CH2           1 RES     
     907 CH2         37.9655    31.7482    65.8395 CH2           1 RES     
     908 CH2         38.0041    31.4218    64.3349 CH2           1 RES     
     909 CH2         39.2197    30.5254    64.0344 CH2           1 RES     
     910 CH2         39.2583    30.1990    62.5299 CH2           1 RES     
     911 CH2         40.4739    29.3026    62.2293 CH2           1 RES     
     912 CH2         40.5125    28.9762    60.7248 CH2           1 RES     
     913 CH2         41.7281    28.0798    60.4242 CH2           1 RES     
     914 CH2         41.7667    27.7534    58.9197 CH2           1 RES     
     915 CH2         42.9822    26.8570    58.6192 CH2           1 RES     
     916 CH2         43.0209    26.5306    57.1146 CH2           1 RES     
     917 CH2         44.2364    25.6342    56.8141 CH2           1 RES     
     918 CH3         44.2733    25.3227    55.3780 CH3           1 RES     
     919 CH3         48.4734    10.7488    80.0760 CH3           1 RES     
     920 CH3         46.2765    10.1195    79.5184 CH3           1 RES     
     921 CH3         46.6736    11.5116    81.1577 CH3           1 RES     
     922 NL          47.0864    11.0822    79.9762 NL            1 RES     
     923 CH2         46.9688    12.2257    79.1907 CH2           1 RES     
     924 CH2         47.4542    11.6928    77.8299 CH2           1 RES     
     925 OA          47.4062    12.7844    76.8242 OA            1 RES     
     926 P           45.9633    12.7572    76.1335 P             1 RES     
     927 OM          45.8221    11.3357    75.4129 OM            1 RES     
     928 OM          44.8913    13.0247    77.2908 OM            1 RES     
     929 OA          45.8723    13.9222    75.0405 OA            1 RES     
     930 CH2         44.5235    13.8668    74.4219 CH2           1 RES     
     931 CH1         44.5301    14.2999    73.1346 CH1           1 RES     
     932 OE          44.1758    12.9066    72.8279 OE            1 RES     
     933 C           44.4745    12.2223    71.5269 C             1 RES     
     934 O           44.6561    11.0122    71.4018 O             1 RES     
     935 CH2         44.6780    13.2975    70.6453 CH2           1 RES     
     936 CH2         45.1174    12.5829    69.3539 CH2           1 RES     
     937 CH2         45.5573    13.6282    68.3121 CH2           1 RES     
     938 CH2         45.9966    12.9136    67.0206 CH2           1 RES     
     939 CH2         46.4366    13.9590    65.9789 CH2           1 RES     
     940 CH2         46.8759    13.2443    64.6874 CH2           1 RES     
     941 CH2         47.3158    14.2897    63.6456 CH2           1 RES     
     942 CH2         47.7552    13.5751    62.3542 CH2           1 RES     
     943 CH2         48.1951    14.6204    61.3124 CH2           1 RES     
     944 CH2         48.6344    13.9058    60.0209 CH2           1 RES     
     945 CH2         49.0744    14.9512    58.9791 CH2           1 RES     
     946 CH2         49.5137    14.2365    57.6877 CH2           1 RES     
     947 CH2         49.9537    15.2819    56.6459 CH2           1 RES     
     948 CH2         50.3930    14.5673    55.3544 CH2           1 RES     
     949 CH2         50.8329    15.6126    54.3127 CH2           1 RES     
     950 CH2         51.2722    14.8980    53.0212 CH2           1 RES     
     951 CH3         51.6922    15.8959    52.0268 CH3           1 RES     
     952 CH2         45.9841    14.5668    72.7027 CH2           1 RES     
     953 OE          46.0928    13.9668    71.3713 OE            1 RES     
     954 C           47.5289    14.3043    71.0996 C             1 RES     
     955 O           48.2607    14.9138    71.8780 O             1 RES     
     956 CH2         47.6865    13.9456    69.7501 CH2           1 RES     
     957 CH2         49.1190    14.4243    69.4496 CH2           1 RES     
     958 CH2         49.4082    14.2682    67.9451 CH2           1 RES     
     959 CH2         50.8407    14.7469    67.6445 CH2           1 RES     
     960 CH2         51.1299    14.5908    66.1400 CH2           1 RES     
     961 CH2         52.5624    15.0695    65.8395 CH2           1 RES     
     962 CH2         52.8515    14.9134    64.3349 CH2           1 RES     
     963 CH2         54.2841    15.3921    64.0344 CH2           1 RES     
     964 CH2         54.5732    15.2360    62.5299 CH2           1 RES     
     965 CH2         56.0057    15.7148    62.2293 CH2           1 RES     
     966 CH2         56.2949    15.5587    60.7248 CH2           1 RES     
     967 CH2         57.7274    16.0374    60.4242 CH2           1 RES     
     968 CH2         58.0166    15.8813    58.9197 CH2           1 RES     
     969 CH2         59.4491    16.3600    58.6192 CH2           1 RES     
     970 CH2         59.7382    16.2039    57.1146 CH2           1 RES     
     971 CH2         61.1708    16.6826    56.8141 CH2           1 RES     
     972 CH3         61.4468    16.5336    55.3780 CH3           1 RES     
     973 CH3         26.6143    32.6078    80.0760 CH3           1 RES     
     974 CH3         24.3351    32.7736    79.5184 CH3           1 RES     
     975 CH3         25.1873    33.9437    81.1577 CH3           1 RES     
     976 NL          25.4269    33.3985    79.9762 NL            1 RES     
     977 CH2         25.7103    34.5126    79.1907 CH2           1 RES     
     978 CH2         25.9825    33.8451    77.8299 CH2           1 RES     
     979 OA          26.3133    34.8865    76.8242 OA            1 RES     
     980 P           24.9493    35.3578    76.1335 P             1 RES     
     981 OM          24.3273    34.0718    75.4129 OM            1 RES     
     982 OM          24.0350    35.9780    77.2908 OM            1 RES     
     983 OA          25.2650    36.4829    75.0405 OA            1 RES     
     984 CH2         23.9796    36.8953    74.4219 CH2           1 RES     
     985 CH1         24.1350    37.2996    73.1346 CH1           1 RES     
     986 OE          23.3225    36.1136    72.8279 OE            1 RES     
     987 C           23.3673    35.3683    71.5269 C             1 RES     
     988 O           23.1212    34.1696    71.4018 O             1 RES     
     989 CH2         23.9287    36.3076    70.6453 CH2           1 RES     
     990 CH2         24.0951    35.4854    69.3539 CH2           1 RES     
     991 CH2         24.8681    36.3153    68.3121 CH2           1 RES     
     992 CH2         25.0344    35.4931    67.0206 CH2           1 RES     
     993 CH2         25.8074    36.3231    65.9789 CH2           1 RES     
     994 CH2         25.9738    35.5009    64.6874 CH2           1 RES     
     995 CH2         26.7468    36.3308    63.6456 CH2           1 RES     
     996 CH2         26.9132    35.5086    62.3542 CH2           1 RES     
     997 CH2         27.6862    36.3386    61.3124 CH2           1 RES     
     998 CH2         27.8526    35.5164    60.0209 CH2           1 RES     
     999 CH2         28.6256    36.3463    58.9791 CH2           1 RES     
    1000 CH2         28.7920    35.5241    57.6877 CH2           1 RES     
    1001 CH2         29.5650    36.3540    56.6459 CH2           1 RES     
    1002 CH2         29.7314    35.5319    55.3544 CH2           1 RES     
    1003 CH2         30.5044    36.3618    54.3127 CH2           1 RES     
    1004 CH2         30.6708    35.5396    53.0212 CH2           1 RES     
    1005 CH3         31.4086    36.3318    52.0268 CH3           1 RES     
    1006 CH2         25.5919    37.0495    72.7027 CH2           1 RES     
    1007 OE          25.4874    36.4488    71.3713 OE            1 RES     
    1008 C           26.9519    36.2712    71.0996 C             1 RES     
    1009 O           27.8488    36.5914    71.8780 O             1 RES     
    1010 CH2         26.9764    35.8801    69.7501 CH2           1 RES     
    1011 CH2         28.4861    35.8363    69.4496 CH2           1 RES     
    1012 CH2         28.7038    35.5901    67.9451 CH2           1 RES     
    1013 CH2         30.2136    35.5463    67.6445 CH2           1 RES     
    1014 CH2         30.4313    35.3002    66.1400 CH2           1 RES     
    1015 CH2         31.9411    35.2564    65.8395 CH2           1 RES     
    1016 CH2         32.1588    35.0102    64.3349 CH2           1 RES     
    1017 CH2         33.6685    34.9664    64.0344 CH2           1 RES     
    1018 CH2         33.8863    34.7203    62.5299 CH2           1 RES     
    1019 CH2         35.3960    34.6765    62.2293 CH2           1 RES     
    1020 CH2         35.6137    34.4303    60.7248 CH2           1 RES     
    1021 CH2         37.1235    34.3865    60.4242 CH2           1 RES     
    1022 CH2         37.3412    34.1404    58.9197 CH2           1 RES     
    1023 CH2         38.8510    34.0966    58.6192 CH2           1 RES     
    1024 CH2         39.0687    33.8504    57.1146 CH2           1 RES     
    1025 CH2         40.5784    33.8066    56.8141 CH2           1 RES     
    1026 CH3         40.7863    33.5717    55.3780 CH3           1 RES     
    1027 CH3         21.1495    16.2135    80.0760 CH3           1 RES     
    1028 CH3         19.0653    17.1505    79.5184 CH3           1 RES     
    1029 CH3         20.2669    17.9577    81.1577 CH3           1 RES     
    1030 NL          20.3051    17.3633    79.9762 NL            1 RES     
    1031 CH2         20.9533    18.3128    79.1907 CH2           1 RES     
    1032 CH2         20.9801    17.5924    77.8299 CH2           1 RES     
    1033 OA          21.6479    18.4573    76.8242 OA            1 RES     
    1034 P           20.5281    19.3676    76.1335 P             1 RES     
    1035 OM          19.5029    18.3728    75.4129 OM            1 RES     
    1036 OM          19.8818    20.2637    77.2908 OM            1 RES     
    1037 OA          21.2104    20.3163    75.0405 OA            1 RES     
    1038 CH2         20.1441    21.1444    74.4219 CH2           1 RES     
    1039 CH1         20.4288    21.4709    73.1346 CH1           1 RES     
    1040 OE          19.2590    20.6352    72.8279 OE            1 RES     
    1041 C           19.0455    19.9197    71.5269 C             1 RES     
    1042 O           18.4034    18.8781    71.4018 O             1 RES     
    1043 CH2         19.8949    20.6097    70.6453 CH2           1 RES     
    1044 CH2         19.7693    19.7803    69.3539 CH2           1 RES     
    1045 CH2         20.7800    20.2950    68.3121 CH2           1 RES     
    1046 CH2         20.6545    19.4656    67.0206 CH2           1 RES     
    1047 CH2         21.6651    19.9802    65.9789 CH2           1 RES     
    1048 CH2         21.5396    19.1508    64.6874 CH2           1 RES     
    1049 CH2         22.5502    19.6655    63.6456 CH2           1 RES     
    1050 CH2         22.4247    18.8361    62.3542 CH2           1 RES     
    1051 CH2         23.4354    19.3508    61.3124 CH2           1 RES     
    1052 CH2         23.3098    18.5213    60.0209 CH2           1 RES     
    1053 CH2         24.3205    19.0360    58.9791 CH2           1 RES     
    1054 CH2         24.1949    18.2066    57.6877 CH2           1 RES     
    1055 CH2         25.2056    18.7213    56.6459 CH2           1 RES     
    1056 CH2         25.0801    17.8919    55.3544 CH2           1 RES     
    1057 CH2         26.0907    18.4065    54.3127 CH2           1 RES     
    1058 CH2         25.9652    17.5771    53.0212 CH2           1 RES     
    1059 CH3         26.9299    18.0684    52.0268 CH3           1 RES     
    1060 CH2         21.7117    20.7366    72.7027 CH2           1 RES     
    1061 OE          21.4076    20.2081    71.3713 OE            1 RES     
    1062 C           22.7224    19.5392    71.0996 C             1 RES     
    1063 O           23.6748    19.5326    71.8780 O             1 RES     
    1064 CH2         22.6114    19.1634    69.7501 CH2           1 RES     
    1065 CH2         24.0146    18.6047    69.4496 CH2           1 RES     
    1066 CH2         24.1348    18.2989    67.9451 CH2           1 RES     
    1067 CH2         25.5380    17.7402    67.6445 CH2           1 RES     
    1068 CH2         25.6582    17.4343    66.1400 CH2           1 RES     
    1069 CH2         27.0614    16.8756    65.8395 CH2           1 RES     
    1070 CH2         27.1816    16.5698    64.3349 CH2           1 RES     
    1071 CH2         28.5849    16.0111    64.0344 CH2           1 RES     
    1072 CH2         28.7050    15.7052    62.5299 CH2           1 RES     
    1073 CH2         30.1083    15.1465    62.2293 CH2           1 RES     
    1074 CH2         30.2284    14.8407    60.7248 CH2           1 RES     
    1075 CH2         31.6317    14.2820    60.4242 CH2           1 RES     
    1076 CH2         31.7518    13.9761    58.9197 CH2           1 RES     
    1077 CH2         33.1551    13.4174    58.6192 CH2           1 RES     
    1078 CH2         33.2753    13.1116    57.1146 CH2           1 RES     
    1079 CH2         34.6785    12.5529    56.8141 CH2           1 RES     
    1080 CH3         34.7932    12.2609    55.3780 CH3           1 RES     
    1081 CH3         37.5438     5.2840    80.0760 CH3           1 RES     
    1082 CH3         35.2595     5.2203    79.5184 CH3           1 RES     
    1083 CH3         35.9900     6.4700    81.1577 CH3           1 RES     
    1084 NL          36.2832     5.9515    79.9762 NL            1 RES     
    1085 CH2         36.4534     7.0885    79.1907 CH2           1 RES     
    1086 CH2         36.7911     6.4516    77.8299 CH2           1 RES     
    1087 OA          37.0158     7.5209    76.8242 OA            1 RES     
    1088 P           35.6114     7.8531    76.1335 P             1 RES     
    1089 OM          35.1215     6.5112    75.4129 OM            1 RES     
    1090 OM          34.6395     8.3785    77.2908 OM            1 RES     
    1091 OA          35.8127     9.0042    75.0405 OA            1 RES     
    1092 CH2         34.4924     9.2855    74.4219 CH2           1 RES     
    1093 CH1         34.6065     9.7034    73.1346 CH1           1 RES     
    1094 OE          33.9171     8.4419    72.8279 OE            1 RES     
    1095 C           34.0364     7.7048    71.5269 C             1 RES     
    1096 O           33.9117     6.4876    71.4018 O             1 RES     
    1097 CH2         34.5007     8.6957    70.6453 CH2           1 RES     
    1098 CH2         34.7487     7.8943    69.3539 CH2           1 RES     
    1099 CH2         35.4346     8.7976    68.3121 CH2           1 RES     
    1100 CH2         35.6826     7.9963    67.0206 CH2           1 RES     
    1101 CH2         36.3684     8.8996    65.9789 CH2           1 RES     
    1102 CH2         36.6164     8.0982    64.6874 CH2           1 RES     
    1103 CH2         37.3023     9.0015    63.6456 CH2           1 RES     
    1104 CH2         37.5503     8.2001    62.3542 CH2           1 RES     
    1105 CH2         38.2362     9.1034    61.3124 CH2           1 RES     
    1106 CH2         38.4842     8.3020    60.0209 CH2           1 RES     
    1107 CH2         39.1700     9.2053    58.9791 CH2           1 RES     
    1108 CH2         39.4180     8.4040    57.6877 CH2           1 RES     
    1109 CH2         40.1039     9.3073    56.6459 CH2           1 RES     
    1110 CH2         40.3519     8.5059    55.3544 CH2           1 RES     
    1111 CH2         41.0378     9.4092    54.3127 CH2           1 RES     
    1112 CH2         41.2858     8.6078    53.0212 CH2           1 RES     
    1113 CH3         41.9405     9.4701    52.0268 CH3           1 RES     
    1114 CH2         36.0811     9.6007    72.7027 CH2           1 RES     
    1115 OE          36.0374     8.9926    71.3713 OE            1 RES     
    1116 C           37.5123     8.9627    71.0996 C             1 RES     
    1117 O           38.3725     9.3713    71.8780 O             1 RES     
    1118 CH2         37.5759     8.5761    69.7501 CH2           1 RES     
    1119 CH2         39.0824     8.6839    69.4496 CH2           1 RES     
    1120 CH2         39.3237     8.4608    67.9451 CH2           1 RES     
    1121 CH2         40.8302     8.5686    67.6445 CH2           1 RES     
    1122 CH2         41.0716     8.3456    66.1400 CH2           1 RES     
    1123 CH2         42.5781     8.4534    65.8395 CH2           1 RES     
    1124 CH2         42.8194     8.2304    64.3349 CH2           1 RES     
    1125 CH2         44.3259     8.3382    64.0344 CH2           1 RES     
    1126 CH2         44.5672     8.1152    62.5299 CH2           1 RES     
    1127 CH2         46.0738     8.2230    62.2293 CH2           1 RES     
    1128 CH2         46.3151     7.9999    60.7248 CH2           1 RES     
    1129 CH2         47.8216     8.1078    60.4242 CH2           1 RES     
    1130 CH2         48.0629     7.8847    58.9197 CH2           1 RES     
    1131 CH2         49.5695     7.9925    58.6192 CH2           1 RES     
    1132 CH2         49.8108     7.7695    57.1146 CH2           1 RES     
    1133 CH2         51.3173     7.8773    56.8141 CH2           1 RES     
    1134 CH3         51.5477     7.6644    55.3780 CH3           1 RES     
    1135 CH3         37.5438    32.6078    80.0760 CH3           1 RES     
    1136 CH3         35.3286    32.0466    79.5184 CH3           1 RES     
    1137 CH3         35.7685    33.4258    81.1577 CH3           1 RES     
    1138 NL          36.1678    32.9839    79.9762 NL            1 RES     
    1139 CH2         36.0855    34.1305    79.1907 CH2           1 RES     
    1140 CH2         36.5542    33.5828    77.8299 CH2           1 RES     
    1141 OA          36.5399    34.6754    76.8242 OA            1 RES     
    1142 P           35.0968    34.6927    76.1335 P             1 RES     
    1143 OM          34.9119    33.2762    75.4129 OM            1 RES     
    1144 OM          34.0336    34.9931    77.2908 OM            1 RES     
    1145 OA          35.0419    35.8600    75.0405 OA            1 RES     
    1146 CH2         33.6919    35.8461    74.4219 CH2           1 RES     
    1147 CH1         33.7120    36.2789    73.1346 CH1           1 RES     
    1148 OE          33.3148    34.8972    72.8279 OE            1 RES     
    1149 C           33.5923    34.2040    71.5269 C             1 RES     
    1150 O           33.7365    32.9889    71.4018 O             1 RES     
    1151 CH2         33.8289    35.2724    70.6453 CH2           1 RES     
    1152 CH2         34.2460    34.5445    69.3539 CH2           1 RES     
    1153 CH2         34.7179    35.5758    68.3121 CH2           1 RES     
    1154 CH2         35.1350    34.8480    67.0206 CH2           1 RES     
    1155 CH2         35.6070    35.8793    65.9789 CH2           1 RES     
    1156 CH2         36.0241    35.1515    64.6874 CH2           1 RES     
    1157 CH2         36.4960    36.1828    63.6456 CH2           1 RES     
    1158 CH2         36.9131    35.4549    62.3542 CH2           1 RES     
    1159 CH2         37.3851    36.4862    61.3124 CH2           1 RES     
    1160 CH2         37.8022    35.7584    60.0209 CH2           1 RES     
    1161 CH2         38.2741    36.7897    58.9791 CH2           1 RES     
    1162 CH2         38.6912    36.0619    57.6877 CH2           1 RES     
    1163 CH2         39.1632    37.0932    56.6459 CH2           1 RES     
    1164 CH2         39.5803    36.3654    55.3544 CH2           1 RES     
    1165 CH2         40.0522    37.3966    54.3127 CH2           1 RES     
    1166 CH2         40.4693    36.6688    53.0212 CH2           1 RES     
    1167 CH3         40.9198    37.6532    52.0268 CH3           1 RES     
    1168 CH2         35.1734    36.5008    72.7027 CH2           1 RES     
    1169 OE          35.2637    35.8978    71.3713 OE            1 RES     
    1170 C           36.7094    36.1908    71.0996 C             1 RES     
    1171 O           37.4597    36.7775    71.8780 O             1 RES     
    1172 CH2         36.8559    35.8274    69.7501 CH2           1 RES     
    1173 CH2         38.3025    36.2617    69.4496 CH2           1 RES     
    1174 CH2         38.5867    36.0968    67.9451 CH2           1 RES     
    1175 CH2         40.0333    36.5311    67.6445 CH2           1 RES     
    1176 CH2         40.3175    36.3661    66.1400 CH2           1 RES     
    1177 CH2         41.7641    36.8005    65.8395 CH2           1 RES     
    1178 CH2         42.0483    36.6355    64.3349 CH2           1 RES     
    1179 CH2         43.4949    37.0698    64.0344 CH2           1 RES     
    1180 CH2         43.7792    36.9049    62.5299 CH2           1 RES     
    1181 CH2         45.2257    37.3392    62.2293 CH2           1 RES     
    1182 CH2         45.5100    37.1743    60.7248 CH2           1 RES     
    1183 CH2         46.9566    37.6086    60.4242 CH2           1 RES     
    1184 CH2         47.2408    37.4436    58.9197 CH2           1 RES     
    1185 CH2         48.6874    37.8780    58.6192 CH2           1 RES     
    1186 CH2         48.9716    37.7130    57.1146 CH2           1 RES     
    1187 CH2         50.4182    38.1473    56.8141 CH2           1 RES     
    1188 CH3         50.6894    37.9899    55.3780 CH3           1 RES     
    1189 CH3         26.6143     5.2840    80.0760 CH3           1 RES     
    1190 CH3         24.6330     6.4227    79.5184 CH3           1 RES     
    1191 CH3         25.9087     7.1069    81.1577 CH3           1 RES     
    1192 NL          25.8879     6.5117    79.9762 NL            1 RES     
    1193 CH2         26.6268     7.3923    79.1907 CH2           1 RES     
    1194 CH2         26.5822     6.6728    77.8299 CH2           1 RES     
    1195 OA          27.3323     7.4674    76.8242 OA            1 RES     
    1196 P           26.3081     8.4841    76.1335 P             1 RES     
    1197 OM          25.1895     7.5956    75.4129 OM            1 RES     
    1198 OM          25.7537     9.4398    77.2908 OM            1 RES     
    1199 OA          27.0810     9.3606    75.0405 OA            1 RES     
    1200 CH2         26.1020    10.2901    74.4219 CH2           1 RES     
    1201 CH1         26.4175    10.5869    73.1346 CH1           1 RES     
    1202 OE          25.1707     9.8711    72.8279 OE            1 RES     
    1203 C           24.8875     9.1803    71.5269 C             1 RES     
    1204 O           24.1455     8.2073    71.4018 O             1 RES     
    1205 CH2         25.8010     9.7828    70.6453 CH2           1 RES     
    1206 CH2         25.5940     8.9699    69.3539 CH2           1 RES     
    1207 CH2         26.6506     9.3820    68.3121 CH2           1 RES     
    1208 CH2         26.4436     8.5691    67.0206 CH2           1 RES     
    1209 CH2         27.5002     8.9812    65.9789 CH2           1 RES     
    1210 CH2         27.2932     8.1683    64.6874 CH2           1 RES     
    1211 CH2         28.3498     8.5804    63.6456 CH2           1 RES     
    1212 CH2         28.1428     7.7674    62.3542 CH2           1 RES     
    1213 CH2         29.1995     8.1795    61.3124 CH2           1 RES     
    1214 CH2         28.9924     7.3666    60.0209 CH2           1 RES     
    1215 CH2         30.0491     7.7787    58.9791 CH2           1 RES     
    1216 CH2         29.8421     6.9658    57.6877 CH2           1 RES     
    1217 CH2         30.8987     7.3779    56.6459 CH2           1 RES     
    1218 CH2         30.6917     6.5650    55.3544 CH2           1 RES     
    1219 CH2         31.7483     6.9771    54.3127 CH2           1 RES     
    1220 CH2         31.5413     6.1642    53.0212 CH2           1 RES     
    1221 CH3         32.5499     6.5576    52.0268 CH3           1 RES     
    1222 CH2         27.6214     9.7292    72.7027 CH2           1 RES     
    1223 OE          27.2665     9.2334    71.3713 OE            1 RES     
    1224 C           28.5087     8.4376    71.0996 C             1 RES     
    1225 O           29.4557     8.3368    71.8780 O             1 RES     
    1226 CH2         28.3609     8.0747    69.7501 CH2           1 RES     
    1227 CH2         29.7020     7.3798    69.4496 CH2           1 RES     
    1228 CH2         29.7913     7.0636    67.9451 CH2           1 RES     
    1229 CH2         31.1324     6.3687    67.6445 CH2           1 RES     
    1230 CH2         31.2217     6.0525    66.1400 CH2           1 RES     
    1231 CH2         32.5627     5.3576    65.8395 CH2           1 RES     
    1232 CH2         32.6520     5.0414    64.3349 CH2           1 RES     
    1233 CH2         33.9931     4.3465    64.0344 CH2           1 RES     
    1234 CH2         34.0824     4.0303    62.5299 CH2           1 RES     
    1235 CH2         35.4234     3.3354    62.2293 CH2           1 RES     
    1236 CH2         35.5127     3.0191    60.7248 CH2           1 RES     
    1237 CH2         36.8538     2.3243    60.4242 CH2           1 RES     
    1238 CH2         36.9431     2.0080    58.9197 CH2           1 RES     
    1239 CH2         38.2841     1.3132    58.6192 CH2           1 RES     
    1240 CH2         38.3734     0.9969    57.1146 CH2           1 RES     
    1241 CH2         39.7145     0.3021    56.8141 CH2           1 RES     
    1242 CH3         39.7997     0.0002    55.3780 CH3           1 RES     
    1243 CH3         48.4734    32.6078    80.0760 CH3           1 RES     
    1244 CH3         46.2238    32.2058    79.5184 CH3           1 RES     
    1245 CH3         46.7608    33.5501    81.1577 CH3           1 RES     
    1246 NL          47.1276    33.0809    79.9762 NL            1 RES     
    1247 CH2         47.1272    34.2305    79.1907 CH2           1 RES     
    1248 CH2         47.5557    33.6508    77.8299 CH2           1 RES     
    1249 OA          47.6193    34.7416    76.8242 OA            1 RES     
    1250 P           46.1811    34.8617    76.1335 P             1 RES     
    1251 OM          45.8958    33.4619    75.4129 OM            1 RES     
    1252 OM          45.1419    35.2370    77.2908 OM            1 RES     
    1253 OA          46.2093    36.0299    75.0405 OA            1 RES     
    1254 CH2         44.8619    36.1122    74.4219 CH2           1 RES     
    1255 CH1         44.9127    36.5424    73.1346 CH1           1 RES     
    1256 OE          44.4181    35.1925    72.8279 OE            1 RES     
    1257 C           44.6455    34.4813    71.5269 C             1 RES     
    1258 O           44.7028    33.2591    71.4018 O             1 RES     
    1259 CH2         44.9576    35.5302    70.6453 CH2           1 RES     
    1260 CH2         45.3218    34.7745    69.3539 CH2           1 RES     
    1261 CH2         45.8660    35.7695    68.3121 CH2           1 RES     
    1262 CH2         46.2302    35.0139    67.0206 CH2           1 RES     
    1263 CH2         46.7744    36.0089    65.9789 CH2           1 RES     
    1264 CH2         47.1386    35.2532    64.6874 CH2           1 RES     
    1265 CH2         47.6828    36.2483    63.6456 CH2           1 RES     
    1266 CH2         48.0470    35.4926    62.3542 CH2           1 RES     
    1267 CH2         48.5912    36.4877    61.3124 CH2           1 RES     
    1268 CH2         48.9554    35.7320    60.0209 CH2           1 RES     
    1269 CH2         49.4996    36.7271    58.9791 CH2           1 RES     
    1270 CH2         49.8638    35.9714    57.6877 CH2           1 RES     
    1271 CH2         50.4080    36.9665    56.6459 CH2           1 RES     
    1272 CH2         50.7722    36.2108    55.3544 CH2           1 RES     
    1273 CH2         51.3164    37.2059    54.3127 CH2           1 RES     
    1274 CH2         51.6806    36.4502    53.0212 CH2           1 RES     
    1275 CH3         52.2001    37.4000    52.0268 CH3           1 RES     
    1276 CH2         46.3862    36.6597    72.7027 CH2           1 RES     
    1277 OE          46.4333    36.0518    71.3713 OE            1 RES     
    1278 C           47.8963    36.2412    71.0996 C             1 RES     
    1279 O           48.6863    36.7729    71.8780 O             1 RES     
    1280 CH2         48.0165    35.8682    69.7501 CH2           1 RES     
    1281 CH2         49.4903    36.1984    69.4496 CH2           1 RES     
    1282 CH2         49.7621    36.0136    67.9451 CH2           1 RES     
    1283 CH2         51.2359    36.3438    67.6445 CH2           1 RES     
    1284 CH2         51.5077    36.1591    66.1400 CH2           1 RES     
    1285 CH2         52.9815    36.4893    65.8395 CH2           1 RES     
    1286 CH2         53.2533    36.3045    64.3349 CH2           1 RES     
    1287 CH2         54.7271    36.6347    64.0344 CH2           1 RES     
    1288 CH2         54.9989    36.4500    62.5299 CH2           1 RES     
    1289 CH2         56.4727    36.7802    62.2293 CH2           1 RES     
    1290 CH2         56.7444    36.5954    60.7248 CH2           1 RES     
    1291 CH2         58.2183    36.9256    60.4242 CH2           1 RES     
    1292 CH2         58.4900    36.7408    58.9197 CH2           1 RES     
    1293 CH2         59.9639    37.0710    58.6192 CH2           1 RES     
    1294 CH2         60.2356    36.8863    57.1146 CH2           1 RES     
    1295 CH2         61.7095    37.2165    56.8141 CH2           1 RES     
    1296 CH3         61.9689    37.0401    55.3780 CH3           1 RES     
    1297 CH3         32.0791    38.0726    80.0760 CH3           1 RES     
    1298 CH3         29.9666    38.9440    79.5184 CH3           1 RES     
    1299 CH3         31.1424    39.7883    81.1577 CH3           1 RES     
    1300 NL          31.1992    39.1954    79.9762 NL            1 RES     
    1301 CH2         31.8173    40.1647    79.1907 CH2           1 RES     
    1302 CH2         31.8667    39.4455    77.8299 CH2           1 RES     
    1303 OA          32.5071    40.3308    76.8242 OA            1 RES     
    1304 P           31.3594    41.2058    76.1335 P             1 RES     
    1305 OM          30.3658    40.1794    75.4129 OM            1 RES     
    1306 OM          30.6855    42.0812    77.2908 OM            1 RES     
    1307 OA          32.0118    42.1753    75.0405 OA            1 RES     
    1308 CH2         30.9202    42.9696    74.4219 CH2           1 RES     
    1309 CH1         31.1945    43.3049    73.1346 CH1           1 RES     
    1310 OE          30.0514    42.4331    72.8279 OE            1 RES     
    1311 C           29.8604    41.7113    71.5269 C             1 RES     
    1312 O           29.2511    40.6502    71.4018 O             1 RES     
    1313 CH2         30.6878    42.4275    70.6453 CH2           1 RES     
    1314 CH2         30.5882    41.5946    69.3539 CH2           1 RES     
    1315 CH2         31.5823    42.1405    68.3121 CH2           1 RES     
    1316 CH2         31.4827    41.3076    67.0206 CH2           1 RES     
    1317 CH2         32.4768    41.8536    65.9789 CH2           1 RES     
    1318 CH2         32.3772    41.0206    64.6874 CH2           1 RES     
    1319 CH2         33.3713    41.5666    63.6456 CH2           1 RES     
    1320 CH2         33.2717    40.7337    62.3542 CH2           1 RES     
    1321 CH2         34.2658    41.2797    61.3124 CH2           1 RES     
    1322 CH2         34.1663    40.4467    60.0209 CH2           1 RES     
    1323 CH2         35.1604    40.9927    58.9791 CH2           1 RES     
    1324 CH2         35.0608    40.1598    57.6877 CH2           1 RES     
    1325 CH2         36.0549    40.7058    56.6459 CH2           1 RES     
    1326 CH2         35.9553    39.8728    55.3544 CH2           1 RES     
    1327 CH2         36.9494    40.4188    54.3127 CH2           1 RES     
    1328 CH2         36.8498    39.5859    53.0212 CH2           1 RES     
    1329 CH3         37.7987    40.1071    52.0268 CH3           1 RES     
    1330 CH2         32.4997    42.6110    72.7027 CH2           1 RES     
    1331 OE          32.2123    42.0733    71.3713 OE            1 RES     
    1332 C           33.5474    41.4458    71.0996 C             1 RES     
    1333 O           34.4994    41.4689    71.8780 O             1 RES     
    1334 CH2         33.4481    41.0667    69.7501 CH2           1 RES     
    1335 CH2         34.8681    40.5521    69.4496 CH2           1 RES     
    1336 CH2         34.9977    40.2501    67.9451 CH2           1 RES     
    1337 CH2         36.4178    39.7355    67.6445 CH2           1 RES     
    1338 CH2         36.5474    39.4336    66.1400 CH2           1 RES     
    1339 CH2         37.9674    38.9189    65.8395 CH2           1 RES     
    1340 CH2         38.0971    38.6170    64.3349 CH2           1 RES     
    1341 CH2         39.5171    38.1024    64.0344 CH2           1 RES     
    1342 CH2         39.6467    37.8004    62.5299 CH2           1 RES     
    1343 CH2         41.0668    37.2858    62.2293 CH2           1 RES     
    1344 CH2         41.1964    36.9839    60.7248 CH2           1 RES     
    1345 CH2         42.6164    36.4692    60.4242 CH2           1 RES     
    1346 CH2         42.7461    36.1673    58.9197 CH2           1 RES     
    1347 CH2         44.1661    35.6527    58.6192 CH2           1 RES     
    1348 CH2         44.2957    35.3507    57.1146 CH2           1 RES     
    1349 CH2         45.7157    34.8361    56.8141 CH2           1 RES     
    1350 CH3         45.8395    34.5479    55.3780 CH3           1 RES     
    1351 CH3         32.0791    10.7488    80.0760 CH3           1 RES     
    1352 CH3         30.2604    12.1324    79.5184 CH3           1 RES     
    1353 CH3         31.6133    12.6472    81.1577 CH3           1 RES     
    1354 NL          31.5162    12.0596    79.9762 NL            1 RES     
    1355 CH2         32.3621    12.8381    79.1907 CH2           1 RES     
    1356 CH2         32.2255    12.1302    77.8299 CH2           1 RES     
    1357 OA          33.0714    12.8219    76.8242 OA            1 RES     
    1358 P           32.1862    13.9617    76.1335 P             1 RES     
    1359 OM          30.9628    13.2242    75.4129 OM            1 RES     
    1360 OM          31.7591    14.9806    77.2908 OM            1 RES     
    1361 OA          33.0652    14.7317    75.0405 OA            1 RES     
    1362 CH2         32.2136    15.7792    74.4219 CH2           1 RES     
    1363 CH1         32.5647    16.0331    73.1346 CH1           1 RES     
    1364 OE          31.2363    15.4833    72.8279 OE            1 RES     
    1365 C           30.8668    14.8345    71.5269 C             1 RES     
    1366 O           30.0060    13.9649    71.4018 O             1 RES     
    1367 CH2         31.8500    15.3147    70.6453 CH2           1 RES     
    1368 CH2         31.5403    14.5351    69.3539 CH2           1 RES     
    1369 CH2         32.6412    14.8082    68.3121 CH2           1 RES     
    1370 CH2         32.3315    14.0286    67.0206 CH2           1 RES     
    1371 CH2         33.4323    14.3016    65.9789 CH2           1 RES     
    1372 CH2         33.1226    13.5220    64.6874 CH2           1 RES     
    1373 CH2         34.2234    13.7950    63.6456 CH2           1 RES     
    1374 CH2         33.9138    13.0154    62.3542 CH2           1 RES     
    1375 CH2         35.0146    13.2885    61.3124 CH2           1 RES     
    1376 CH2         34.7049    12.5089    60.0209 CH2           1 RES     
    1377 CH2         35.8057    12.7819    58.9791 CH2           1 RES     
    1378 CH2         35.4960    12.0023    57.6877 CH2           1 RES     
    1379 CH2         36.5968    12.2753    56.6459 CH2           1 RES     
    1380 CH2         36.2872    11.4957    55.3544 CH2           1 RES     
    1381 CH2         37.3880    11.7688    54.3127 CH2           1 RES     
    1382 CH2         37.0783    10.9892    53.0212 CH2           1 RES     
    1383 CH3         38.1291    11.2498    52.0268 CH3           1 RES     
    1384 CH2         33.6485    15.0279    72.7027 CH2           1 RES     
    1385 OE          33.2329    14.5817    71.3713 OE            1 RES     
    1386 C           34.3626    13.6331    71.0996 C             1 RES     
    1387 O           35.2888    13.4115    71.8780 O             1 RES     
    1388 CH2         34.1695    13.2921    69.7501 CH2           1 RES     
    1389 CH2         35.4103    12.4308    69.4496 CH2           1 RES     
    1390 CH2         35.4582    12.1058    67.9451 CH2           1 RES     
    1391 CH2         36.6990    11.2445    67.6445 CH2           1 RES     
    1392 CH2         36.7470    10.9194    66.1400 CH2           1 RES     
    1393 CH2         37.9877    10.0581    65.8395 CH2           1 RES     
    1394 CH2         38.0357     9.7330    64.3349 CH2           1 RES     
    1395 CH2         39.2764     8.8718    64.0344 CH2           1 RES     
    1396 CH2         39.3244     8.5467    62.5299 CH2           1 RES     
    1397 CH2         40.5651     7.6854    62.2293 CH2           1 RES     
    1398 CH2         40.6131     7.3603    60.7248 CH2           1 RES     
    1399 CH2         41.8538     6.4990    60.4242 CH2           1 RES     
    1400 CH2         41.9018     6.1739    58.9197 CH2           1 RES     
    1401 CH2         43.1426     5.3127    58.6192 CH2           1 RES     
    1402 CH2         43.1905     4.9876    57.1146 CH2           1 RES     
    1403 CH2         44.4313     4.1263    56.8141 CH2           1 RES     
    1404 CH3         44.4770     3.8160    55.3780 CH3           1 RES     
    1405 CH3         43.0086    21.6783    80.0760 CH3           1 RES     
    1406 CH3         40.9379    22.6448    79.5184 CH3           1 RES     
    1407 CH3         42.1509    23.4348    81.1577 CH3           1 RES     
    1408 NL          42.1806    22.8399    79.9762 NL            1 RES     
    1409 CH2         42.8422    23.7801    79.1907 CH2           1 RES     
    1410 CH2         42.8588    23.0594    77.8299 CH2           1 RES     
    1411 OA          43.5388    23.9147    76.8242 OA            1 RES     
    1412 P           42.4320    24.8409    76.1335 P             1 RES     
    1413 OM          41.3929    23.8607    75.4129 OM            1 RES     
    1414 OM          41.7986    25.7461    77.2908 OM            1 RES     
    1415 OA          43.1278    25.7798    75.0405 OA            1 RES     
    1416 CH2         42.0734    26.6229    74.4219 CH2           1 RES     
    1417 CH1         42.3627    26.9454    73.1346 CH1           1 RES     
    1418 OE          41.1811    26.1264    72.8279 OE            1 RES     
    1419 C           40.9575    25.4141    71.5269 C             1 RES     
    1420 O           40.3007    24.3817    71.4018 O             1 RES     
    1421 CH2         41.8166    26.0919    70.6453 CH2           1 RES     
    1422 CH2         41.6793    25.2643    69.3539 CH2           1 RES     
    1423 CH2         42.6972    25.7646    68.3121 CH2           1 RES     
    1424 CH2         42.5598    24.9370    67.0206 CH2           1 RES     
    1425 CH2         43.5777    25.4373    65.9789 CH2           1 RES     
    1426 CH2         43.4404    24.6098    64.6874 CH2           1 RES     
    1427 CH2         44.4583    25.1100    63.6456 CH2           1 RES     
    1428 CH2         44.3209    24.2825    62.3542 CH2           1 RES     
    1429 CH2         45.3388    24.7827    61.3124 CH2           1 RES     
    1430 CH2         45.2015    23.9552    60.0209 CH2           1 RES     
    1431 CH2         46.2194    24.4554    58.9791 CH2           1 RES     
    1432 CH2         46.0821    23.6279    57.6877 CH2           1 RES     
    1433 CH2         47.0999    24.1281    56.6459 CH2           1 RES     
    1434 CH2         46.9626    23.3006    55.3544 CH2           1 RES     
    1435 CH2         47.9805    23.8008    54.3127 CH2           1 RES     
    1436 CH2         47.8432    22.9733    53.0212 CH2           1 RES     
    1437 CH3         48.8148    23.4508    52.0268 CH3           1 RES     
    1438 CH2         43.6350    26.1929    72.7027 CH2           1 RES     
    1439 OE          43.3235    25.6688    71.3713 OE            1 RES     
    1440 C           44.6287    24.9813    71.0996 C             1 RES     
    1441 O           45.5808    24.9611    71.8780 O             1 RES     
    1442 CH2         44.5122    24.6071    69.7501 CH2           1 RES     
    1443 CH2         45.9074    24.0285    69.4496 CH2           1 RES     
    1444 CH2         46.0232    23.7210    67.9451 CH2           1 RES     
    1445 CH2         47.4184    23.1424    67.6445 CH2           1 RES     
    1446 CH2         47.5342    22.8348    66.1400 CH2           1 RES     
    1447 CH2         48.9293    22.2562    65.8395 CH2           1 RES     
    1448 CH2         49.0451    21.9487    64.3349 CH2           1 RES     
    1449 CH2         50.4403    21.3701    64.0344 CH2           1 RES     
    1450 CH2         50.5561    21.0626    62.5299 CH2           1 RES     
    1451 CH2         51.9513    20.4840    62.2293 CH2           1 RES     
    1452 CH2         52.0671    20.1765    60.7248 CH2           1 RES     
    1453 CH2         53.4622    19.5979    60.4242 CH2           1 RES     
    1454 CH2         53.5780    19.2903    58.9197 CH2           1 RES     
    1455 CH2         54.9732    18.7117    58.6192 CH2           1 RES     
    1456 CH2         55.0890    18.4042    57.1146 CH2           1 RES     
    1457 CH2         56.4842    17.8256    56.8141 CH2           1 RES     
    1458 CH3         56.5947    17.5321    55.3780 CH3           1 RES     
    1459 CH3         21.1495     5.2840    80.0760 CH3           1 RES     
    1460 CH3         19.1511     6.3924    79.5184 CH3           1 RES     
    1461 CH3         20.4162     7.0960    81.1577 CH3           1 RES     
    1462 NL          20.4045     6.5005    79.9762 NL            1 RES     
    1463 CH2         21.1299     7.3923    79.1907 CH2           1 RES     
    1464 CH2         21.0963     6.6722    77.8299 CH2           1 RES     
    1465 OA          21.8342     7.4781    76.8242 OA            1 RES     
    1466 P           20.7946     8.4791    76.1335 P             1 RES     
    1467 OM          19.6897     7.5736    75.4129 OM            1 RES     
    1468 OM          20.2257     9.4262    77.2908 OM            1 RES     
    1469 OA          21.5541     9.3672    75.0405 OA            1 RES     
    1470 CH2         20.5610    10.2817    74.4219 CH2           1 RES     
    1471 CH1         20.8720    10.5833    73.1346 CH1           1 RES     
    1472 OE          19.6363     9.8486    72.8279 OE            1 RES     
    1473 C           19.3636     9.1535    71.5269 C             1 RES     
    1474 O           18.6365     8.1694    71.4018 O             1 RES     
    1475 CH2         20.2678     9.7699    70.6453 CH2           1 RES     
    1476 CH2         20.0732     8.9539    69.3539 CH2           1 RES     
    1477 CH2         21.1234     9.3821    68.3121 CH2           1 RES     
    1478 CH2         20.9288     8.5661    67.0206 CH2           1 RES     
    1479 CH2         21.9790     8.9942    65.9789 CH2           1 RES     
    1480 CH2         21.7844     8.1783    64.6874 CH2           1 RES     
    1481 CH2         22.8347     8.6064    63.6456 CH2           1 RES     
    1482 CH2         22.6400     7.7904    62.3542 CH2           1 RES     
    1483 CH2         23.6903     8.2186    61.3124 CH2           1 RES     
    1484 CH2         23.4957     7.4026    60.0209 CH2           1 RES     
    1485 CH2         24.5459     7.8307    58.9791 CH2           1 RES     
    1486 CH2         24.3513     7.0148    57.6877 CH2           1 RES     
    1487 CH2         25.4015     7.4429    56.6459 CH2           1 RES     
    1488 CH2         25.2069     6.6269    55.3544 CH2           1 RES     
    1489 CH2         26.2572     7.0551    54.3127 CH2           1 RES     
    1490 CH2         26.0626     6.2391    53.0212 CH2           1 RES     
    1491 CH3         27.0651     6.6478    52.0268 CH3           1 RES     
    1492 CH2         22.0888     9.7440    72.7027 CH2           1 RES     
    1493 OE          21.7416     9.2429    71.3713 OE            1 RES     
    1494 C           22.9957     8.4661    71.0996 C             1 RES     
    1495 O           23.9441     8.3797    71.8780 O             1 RES     
    1496 CH2         22.8535     8.1009    69.7501 CH2           1 RES     
    1497 CH2         24.2050     7.4266    69.4496 CH2           1 RES     
    1498 CH2         24.2991     7.1117    67.9451 CH2           1 RES     
    1499 CH2         25.6505     6.4374    67.6445 CH2           1 RES     
    1500 CH2         25.7446     6.1225    66.1400 CH2           1 RES     
    1501 CH2         27.0961     5.4482    65.8395 CH2           1 RES     
    1502 CH2         27.1902     5.1333    64.3349 CH2           1 RES     
    1503 CH2         28.5417     4.4590    64.0344 CH2           1 RES     
    1504 CH2         28.6358     4.1441    62.5299 CH2           1 RES     
    1505 CH2         29.9873     3.4698    62.2293 CH2           1 RES     
    1506 CH2         30.0814     3.1549    60.7248 CH2           1 RES     
    1507 CH2         31.4329     2.4806    60.4242 CH2           1 RES     
    1508 CH2         31.5270     2.1657    58.9197 CH2           1 RES     
    1509 CH2         32.8785     1.4914    58.6192 CH2           1 RES     
    1510 CH2         32.9726     1.1765    57.1146 CH2           1 RES     
    1511 CH2         34.3240     0.5021    56.8141 CH2           1 RES     
    1512 CH3         34.4139     0.2016    55.3780 CH3           1 RES     
    1513 CH3         15.6848    38.0726    80.0760 CH3           1 RES     
    1514 CH3         13.6028    39.0147    79.5184 CH3           1 RES     
    1515 CH3         14.8064    39.8189    81.1577 CH3           1 RES     
    1516 NL          14.8432    39.2244    79.9762 NL            1 RES     
    1517 CH2         15.4936    40.1723    79.1907 CH2           1 RES     
    1518 CH2         15.5187    39.4519    77.8299 CH2           1 RES     
    1519 OA          16.1886    40.3151    76.8242 OA            1 RES     
    1520 P           15.0710    41.2282    76.1335 P             1 RES     
    1521 OM          14.0434    40.2358    75.4129 OM            1 RES     
    1522 OM          14.4269    42.1259    77.2908 OM            1 RES     
    1523 OA          15.7556    42.1752    75.0405 OA            1 RES     
    1524 CH2         14.6914    43.0059    74.4219 CH2           1 RES     
    1525 CH1         14.9768    43.3318    73.1346 CH1           1 RES     
    1526 OE          13.8050    42.4989    72.8279 OE            1 RES     
    1527 C           13.5898    41.7840    71.5269 C             1 RES     
    1528 O           12.9452    40.7439    71.4018 O             1 RES     
    1529 CH2         14.4408    42.4718    70.6453 CH2           1 RES     
    1530 CH2         14.3133    41.6427    69.3539 CH2           1 RES     
    1531 CH2         15.3252    42.1549    68.3121 CH2           1 RES     
    1532 CH2         15.1976    41.3258    67.0206 CH2           1 RES     
    1533 CH2         16.2095    41.8380    65.9789 CH2           1 RES     
    1534 CH2         16.0820    41.0089    64.6874 CH2           1 RES     
    1535 CH2         17.0939    41.5211    63.6456 CH2           1 RES     
    1536 CH2         16.9663    40.6920    62.3542 CH2           1 RES     
    1537 CH2         17.9782    41.2042    61.3124 CH2           1 RES     
    1538 CH2         17.8507    40.3751    60.0209 CH2           1 RES     
    1539 CH2         18.8626    40.8874    58.9791 CH2           1 RES     
    1540 CH2         18.7350    40.0582    57.6877 CH2           1 RES     
    1541 CH2         19.7470    40.5705    56.6459 CH2           1 RES     
    1542 CH2         19.6194    39.7413    55.3544 CH2           1 RES     
    1543 CH2         20.6313    40.2536    54.3127 CH2           1 RES     
    1544 CH2         20.5037    39.4244    53.0212 CH2           1 RES     
    1545 CH3         21.4697    39.9134    52.0268 CH3           1 RES     
    1546 CH2         16.2579    42.5943    72.7027 CH2           1 RES     
    1547 OE          15.9526    42.0665    71.3713 OE            1 RES     
    1548 C           17.2658    41.3944    71.0996 C             1 RES     
    1549 O           18.2181    41.3855    71.8780 O             1 RES     
    1550 CH2         17.1538    41.0189    69.7501 CH2           1 RES     
    1551 CH2         18.5557    40.4568    69.4496 CH2           1 RES     
    1552 CH2         18.6751    40.1506    67.9451 CH2           1 RES     
    1553 CH2         20.0770    39.5885    67.6445 CH2           1 RES     
    1554 CH2         20.1964    39.2824    66.1400 CH2           1 RES     
    1555 CH2         21.5983    38.7202    65.8395 CH2           1 RES     
    1556 CH2         21.7177    38.4141    64.3349 CH2           1 RES     
    1557 CH2         23.1196    37.8520    64.0344 CH2           1 RES     
    1558 CH2         23.2390    37.5458    62.5299 CH2           1 RES     
    1559 CH2         24.6409    36.9837    62.2293 CH2           1 RES     
    1560 CH2         24.7603    36.6776    60.7248 CH2           1 RES     
    1561 CH2         26.1622    36.1155    60.4242 CH2           1 RES     
    1562 CH2         26.2816    35.8093    58.9197 CH2           1 RES     
    1563 CH2         27.6835    35.2472    58.6192 CH2           1 RES     
    1564 CH2         27.8029    34.9411    57.1146 CH2           1 RES     
    1565 CH2         29.2048    34.3789    56.8141 CH2           1 RES     
    1566 CH3         29.3188    34.0867    55.3780 CH3           1 RES     
    1567 CH3         26.6143    27.1431    80.0760 CH3           1 RES     
    1568 CH3         24.3683    26.7217    79.5184 CH3           1 RES     
    1569 CH3         24.8936    28.0706    81.1577 CH3           1 RES     
    1570 NL          25.2645    27.6046    79.9762 NL            1 RES     
    1571 CH2         25.2542    28.7541    79.1907 CH2           1 RES     
    1572 CH2         25.6877    28.1781    77.8299 CH2           1 RES     
    1573 OA          25.7419    29.2695    76.8242 OA            1 RES     
    1574 P           24.3027    29.3771    76.1335 P             1 RES     
    1575 OM          24.0294    27.9750    75.4129 OM            1 RES     
    1576 OM          23.2604    29.7436    77.2908 OM            1 RES     
    1577 OA          24.3209    30.5456    75.0405 OA            1 RES     
    1578 CH2         22.9728    30.6163    74.4219 CH2           1 RES     
    1579 CH1         23.0199    31.0469    73.1346 CH1           1 RES     
    1580 OE          22.5370    29.6928    72.8279 OE            1 RES     
    1581 C           22.7705    28.9836    71.5269 C             1 RES     
    1582 O           22.8383    27.7619    71.4018 O             1 RES     
    1583 CH2         23.0735    30.0351    70.6453 CH2           1 RES     
    1584 CH2         23.4442    29.2825    69.3539 CH2           1 RES     
    1585 CH2         23.9799    30.2822    68.3121 CH2           1 RES     
    1586 CH2         24.3505    29.5297    67.0206 CH2           1 RES     
    1587 CH2         24.8862    30.5294    65.9789 CH2           1 RES     
    1588 CH2         25.2568    29.7769    64.6874 CH2           1 RES     
    1589 CH2         25.7925    30.7766    63.6456 CH2           1 RES     
    1590 CH2         26.1632    30.0241    62.3542 CH2           1 RES     
    1591 CH2         26.6988    31.0238    61.3124 CH2           1 RES     
    1592 CH2         27.0695    30.2713    60.0209 CH2           1 RES     
    1593 CH2         27.6051    31.2710    58.9791 CH2           1 RES     
    1594 CH2         27.9758    30.5185    57.6877 CH2           1 RES     
    1595 CH2         28.5114    31.5182    56.6459 CH2           1 RES     
    1596 CH2         28.8821    30.7657    55.3544 CH2           1 RES     
    1597 CH2         29.4177    31.7654    54.3127 CH2           1 RES     
    1598 CH2         29.7884    31.0128    53.0212 CH2           1 RES     
    1599 CH3         30.2997    31.9671    52.0268 CH3           1 RES     
    1600 CH2         24.4924    31.1769    72.7027 CH2           1 RES     
    1601 OE          24.5447    30.5694    71.3713 OE            1 RES     
    1602 C           26.0060    30.7713    71.0996 C             1 RES     
    1603 O           26.7915    31.3098    71.8780 O             1 RES     
    1604 CH2         26.1294    30.3994    69.7501 CH2           1 RES     
    1605 CH2         27.6004    30.7422    69.4496 CH2           1 RES     
    1606 CH2         27.8737    30.5598    67.9451 CH2           1 RES     
    1607 CH2         29.3447    30.9027    67.6445 CH2           1 RES     
    1608 CH2         29.6180    30.7203    66.1400 CH2           1 RES     
    1609 CH2         31.0889    31.0631    65.8395 CH2           1 RES     
    1610 CH2         31.3622    30.8807    64.3349 CH2           1 RES     
    1611 CH2         32.8332    31.2235    64.0344 CH2           1 RES     
    1612 CH2         33.1065    31.0411    62.5299 CH2           1 RES     
    1613 CH2         34.5775    31.3840    62.2293 CH2           1 RES     
    1614 CH2         34.8508    31.2016    60.7248 CH2           1 RES     
    1615 CH2         36.3218    31.5444    60.4242 CH2           1 RES     
    1616 CH2         36.5951    31.3620    58.9197 CH2           1 RES     
    1617 CH2         38.0660    31.7048    58.6192 CH2           1 RES     
    1618 CH2         38.3393    31.5224    57.1146 CH2           1 RES     
    1619 CH2         39.8103    31.8653    56.8141 CH2           1 RES     
    1620 CH3         40.0712    31.6912    55.3780 CH3           1 RES     
    1621 CH3         10.2200    38.0726    80.0760 CH3           1 RES     
    1622 CH3          8.3994    39.4537    79.5184 CH3           1 RES     
    1623 CH3          9.7516    39.9704    81.1577 CH3           1 RES     
    1624 NL           9.6554    39.3826    79.9762 NL            1 RES     
    1625 CH2         10.5002    40.1623    79.1907 CH2           1 RES     
    1626 CH2         10.3646    39.4543    77.8299 CH2           1 RES     
    1627 OA          11.2095    40.1471    76.8242 OA            1 RES     
    1628 P           10.3228    41.2857    76.1335 P             1 RES     
    1629 OM           9.1004    40.5465    75.4129 OM            1 RES     
    1630 OM           9.8942    42.3040    77.2908 OM            1 RES     
    1631 OA          11.2007    42.0569    75.0405 OA            1 RES     
    1632 CH2         10.3477    43.1033    74.4219 CH2           1 RES     
    1633 CH1         10.6984    43.3576    73.1346 CH1           1 RES     
    1634 OE           9.3708    42.8060    72.8279 OE            1 RES     
    1635 C            9.0021    42.1567    71.5269 C             1 RES     
    1636 O            8.1425    41.2859    71.4018 O             1 RES     
    1637 CH2          9.9847    42.6383    70.6453 CH2           1 RES     
    1638 CH2          9.6761    41.8582    69.3539 CH2           1 RES     
    1639 CH2         10.7765    42.1328    68.3121 CH2           1 RES     
    1640 CH2         10.4679    41.3528    67.0206 CH2           1 RES     
    1641 CH2         11.5684    41.6273    65.9789 CH2           1 RES     
    1642 CH2         11.2597    40.8473    64.6874 CH2           1 RES     
    1643 CH2         12.3602    41.1218    63.6456 CH2           1 RES     
    1644 CH2         12.0516    40.3418    62.3542 CH2           1 RES     
    1645 CH2         13.1520    40.6163    61.3124 CH2           1 RES     
    1646 CH2         12.8434    39.8363    60.0209 CH2           1 RES     
    1647 CH2         13.9438    40.1108    58.9791 CH2           1 RES     
    1648 CH2         13.6352    39.3308    57.6877 CH2           1 RES     
    1649 CH2         14.7357    39.6054    56.6459 CH2           1 RES     
    1650 CH2         14.4271    38.8253    55.3544 CH2           1 RES     
    1651 CH2         15.5275    39.0999    54.3127 CH2           1 RES     
    1652 CH2         15.2189    38.3198    53.0212 CH2           1 RES     
    1653 CH3         16.2693    38.5819    52.0268 CH3           1 RES     
    1654 CH2         11.7836    42.3539    72.7027 CH2           1 RES     
    1655 OE          11.3686    41.9072    71.3713 OE            1 RES     
    1656 C           12.4996    40.9601    71.0996 C             1 RES     
    1657 O           13.4261    40.7398    71.8780 O             1 RES     
    1658 CH2         12.3070    40.6188    69.7501 CH2           1 RES     
    1659 CH2         13.5489    39.7592    69.4496 CH2           1 RES     
    1660 CH2         13.5973    39.4342    67.9451 CH2           1 RES     
    1661 CH2         14.8392    38.5746    67.6445 CH2           1 RES     
    1662 CH2         14.8876    38.2496    66.1400 CH2           1 RES     
    1663 CH2         16.1296    37.3900    65.8395 CH2           1 RES     
    1664 CH2         16.1780    37.0650    64.3349 CH2           1 RES     
    1665 CH2         17.4199    36.2054    64.0344 CH2           1 RES     
    1666 CH2         17.4683    35.8804    62.5299 CH2           1 RES     
    1667 CH2         18.7102    35.0208    62.2293 CH2           1 RES     
    1668 CH2         18.7586    34.6958    60.7248 CH2           1 RES     
    1669 CH2         20.0006    33.8362    60.4242 CH2           1 RES     
    1670 CH2         20.0490    33.5112    58.9197 CH2           1 RES     
    1671 CH2         21.2909    32.6516    58.6192 CH2           1 RES     
    1672 CH2         21.3393    32.3266    57.1146 CH2           1 RES     
    1673 CH2         22.5812    31.4670    56.8141 CH2           1 RES     
    1674 CH3         22.6274    31.1568    55.3780 CH3           1 RES     
    1675 CH3         10.2200    32.6078    80.0760 CH3           1 RES     
    1676 CH3          8.0161    32.0038    79.5184 CH3           1 RES     
    1677 CH3          8.4291    33.3912    81.1577 CH3           1 RES     
    1678 NL           8.8369    32.9571    79.9762 NL            1 RES     
    1679 CH2          8.7324    34.1020    79.1907 CH2           1 RES     
    1680 CH2          9.2117    33.5635    77.8299 CH2           1 RES     
    1681 OA           9.1762    34.6556    76.8242 OA            1 RES     
    1682 P            7.7330    34.6449    76.1335 P             1 RES     
    1683 OM           7.5756    33.2251    75.4129 OM            1 RES     
    1684 OM           6.6642    34.9247    77.2908 OM            1 RES     
    1685 OA           7.6554    35.8109    75.0405 OA            1 RES     
    1686 CH2          6.3061    35.7709    74.4219 CH2           1 RES     
    1687 CH1          6.3177    36.2039    73.1346 CH1           1 RES     
    1688 OE           5.9474    34.8148    72.8279 OE            1 RES     
    1689 C            6.2382    34.1271    71.5269 C             1 RES     
    1690 O            6.4060    32.9150    71.4018 O             1 RES     
    1691 CH2          6.4541    35.1999    70.6453 CH2           1 RES     
    1692 CH2          6.8852    34.4803    69.3539 CH2           1 RES     
    1693 CH2          7.3371    35.5205    68.3121 CH2           1 RES     
    1694 CH2          7.7682    34.8009    67.0206 CH2           1 RES     
    1695 CH2          8.2201    35.8412    65.9789 CH2           1 RES     
    1696 CH2          8.6512    35.1216    64.6874 CH2           1 RES     
    1697 CH2          9.1031    36.1618    63.6456 CH2           1 RES     
    1698 CH2          9.5342    35.4422    62.3542 CH2           1 RES     
    1699 CH2          9.9861    36.4824    61.3124 CH2           1 RES     
    1700 CH2         10.4172    35.7628    60.0209 CH2           1 RES     
    1701 CH2         10.8691    36.8031    58.9791 CH2           1 RES     
    1702 CH2         11.3002    36.0835    57.6877 CH2           1 RES     
    1703 CH2         11.7521    37.1237    56.6459 CH2           1 RES     
    1704 CH2         12.1832    36.4041    55.3544 CH2           1 RES     
    1705 CH2         12.6351    37.4444    54.3127 CH2           1 RES     
    1706 CH2         13.0662    36.7248    53.0212 CH2           1 RES     
    1707 CH3         13.4976    37.7177    52.0268 CH3           1 RES     
    1708 CH2          7.7746    36.4541    72.7027 CH2           1 RES     
    1709 OE           7.8765    35.8530    71.3713 OE            1 RES     
    1710 C            9.3163    36.1740    71.0996 C             1 RES     
    1711 O           10.0550    36.7750    71.8780 O             1 RES     
    1712 CH2          9.4698    35.8134    69.7501 CH2           1 RES     
    1713 CH2         10.9077    36.2757    69.4496 CH2           1 RES     
    1714 CH2         11.1951    36.1163    67.9451 CH2           1 RES     
    1715 CH2         12.6330    36.5786    67.6445 CH2           1 RES     
    1716 CH2         12.9203    36.4192    66.1400 CH2           1 RES     
    1717 CH2         14.3583    36.8815    65.8395 CH2           1 RES     
    1718 CH2         14.6456    36.7221    64.3349 CH2           1 RES     
    1719 CH2         16.0835    37.1843    64.0344 CH2           1 RES     
    1720 CH2         16.3709    37.0249    62.5299 CH2           1 RES     
    1721 CH2         17.8088    37.4872    62.2293 CH2           1 RES     
    1722 CH2         18.0961    37.3278    60.7248 CH2           1 RES     
    1723 CH2         19.5340    37.7901    60.4242 CH2           1 RES     
    1724 CH2         19.8214    37.6307    58.9197 CH2           1 RES     
    1725 CH2         21.2593    38.0929    58.6192 CH2           1 RES     
    1726 CH2         21.5466    37.9335    57.1146 CH2           1 RES     
    1727 CH2         22.9845    38.3958    56.8141 CH2           1 RES     
    1728 CH3         23.2588    38.2436    55.3780 CH3           1 RES     
    1729 CH3         28.3956    22.7895    64.7295 CH3           1 RES     
    1730 CH2         20.8873    22.4980    76.3079 CH2           1 RES     
    1731 CH2         22.2744    22.6122    75.6487 CH2           1 RES     
    1732 CH2         22.1241    22.5345    74.1180 CH2           1 RES     
    1733 CH2         23.5113    22.6487    73.4589 CH2           1 RES     
    1734 CH2         23.3610    22.5710    71.9282 CH2           1 RES     
    1735 CH2         24.7481    22.6852    71.2691 CH2           1 RES     
    1736 CH2         24.5979    22.6075    69.7384 CH2           1 RES     
    1737 CH2         25.9850    22.7217    69.0792 CH2           1 RES     
    1738 CH2         25.8347    22.6440    67.5485 CH2           1 RES     
    1739 CH2         27.2218    22.7582    66.8894 CH2           1 RES     
    1740 CH2         27.0716    22.6805    65.3587 CH2           1 RES     
    1741 OA          21.0283    22.5709    77.7441 OA            1 RES     
    1742 H           21.1495    21.6783    78.0760 H             1 RES     
    1743 CH3         21.9726    47.3062    64.7295 CH3           1 RES     
    1744 CH2         15.1320    44.1970    76.3079 CH2           1 RES     
    1745 CH2         16.3730    44.8273    75.6487 CH2           1 RES     
    1746 CH2         16.2632    44.6985    74.1180 CH2           1 RES     
    1747 CH2         17.5042    45.3288    73.4589 CH2           1 RES     
    1748 CH2         17.3945    45.2000    71.9282 CH2           1 RES     
    1749 CH2         18.6354    45.8303    71.2691 CH2           1 RES     
    1750 CH2         18.5257    45.7015    69.7384 CH2           1 RES     
    1751 CH2         19.7666    46.3318    69.0792 CH2           1 RES     
    1752 CH2         19.6569    46.2030    67.5485 CH2           1 RES     
    1753 CH2         20.8978    46.8333    66.8894 CH2           1 RES     
    1754 CH2         20.7881    46.7045    65.3587 CH2           1 RES     
    1755 OA          15.2350    44.3179    77.7441 OA            1 RES     
    1756 H           15.6848    43.5374    78.0760 H             1 RES     
    1757 CH3         50.3385    16.3331    64.7295 CH3           1 RES     
    1758 CH2         42.8598    17.0612    76.3079 CH2           1 RES     
    1759 CH2         44.2496    16.9865    75.6487 CH2           1 RES     
    1760 CH2         44.0902    16.9298    74.1180 CH2           1 RES     
    1761 CH2         45.4800    16.8551    73.4589 CH2           1 RES     
    1762 CH2         45.3206    16.7985    71.9282 CH2           1 RES     
    1763 CH2         46.7104    16.7237    71.2691 CH2           1 RES     
    1764 CH2         46.5510    16.6671    69.7384 CH2           1 RES     
    1765 CH2         47.9408    16.5924    69.0792 CH2           1 RES     
    1766 CH2         47.7814    16.5357    67.5485 CH2           1 RES     
    1767 CH2         49.1712    16.4610    66.8894 CH2           1 RES     
    1768 CH2         49.0118    16.4044    65.3587 CH2           1 RES     
    1769 OA          43.0094    17.1143    77.7441 OA            1 RES     
    1770 H           43.0086    16.2135    78.0760 H             1 RES     
    1771 CH3         49.5102    41.4594    64.7295 CH3           1 RES     
    1772 CH2         42.4962    38.7641    76.3079 CH2           1 RES     
    1773 CH2         43.7726    39.3192    75.6487 CH2           1 RES     
    1774 CH2         43.6554    39.1972    74.1180 CH2           1 RES     
    1775 CH2         44.9317    39.7523    73.4589 CH2           1 RES     
    1776 CH2         44.8145    39.6303    71.9282 CH2           1 RES     
    1777 CH2         46.0908    40.1854    71.2691 CH2           1 RES     
    1778 CH2         45.9736    40.0634    69.7384 CH2           1 RES     
    1779 CH2         47.2499    40.6184    69.0792 CH2           1 RES     
    1780 CH2         47.1327    40.4965    67.5485 CH2           1 RES     
    1781 CH2         48.4091    41.0515    66.8894 CH2           1 RES     
    1782 CH2         48.2919    40.9296    65.3587 CH2           1 RES     
    1783 OA          42.6062    38.8785    77.7441 OA            1 RES     
    1784 H           43.0086    38.0726    78.0760 H             1 RES     
    1785 CH3         43.9600    25.2242    64.7295 CH3           1 RES     
    1786 CH2         37.0146    22.3570    76.3079 CH2           1 RES     
    1787 CH2         38.2769    22.9433    75.6487 CH2           1 RES     
    1788 CH2         38.1627    22.8185    74.1180 CH2           1 RES     
    1789 CH2         39.4250    23.4048    73.4589 CH2           1 RES     
    1790 CH2         39.3108    23.2800    71.9282 CH2           1 RES     
    1791 CH2         40.5731    23.8663    71.2691 CH2           1 RES     
    1792 CH2         40.4589    23.7415    69.7384 CH2           1 RES     
    1793 CH2         41.7212    24.3278    69.0792 CH2           1 RES     
    1794 CH2         41.6070    24.2030    67.5485 CH2           1 RES     
    1795 CH2         42.8693    24.7893    66.8894 CH2           1 RES     
    1796 CH2         42.7551    24.6645    65.3587 CH2           1 RES     
    1797 OA          37.1217    22.4741    77.7441 OA            1 RES     
    1798 H           37.5438    21.6783    78.0760 H             1 RES     
    1799 CH3         50.2035     6.6894    64.7295 CH3           1 RES     
    1800 CH2         42.7132     6.0923    76.3079 CH2           1 RES     
    1801 CH2         44.0945     6.2629    75.6487 CH2           1 RES     
    1802 CH2         43.9475     6.1792    74.1180 CH2           1 RES     
    1803 CH2         45.3289     6.3498    73.4589 CH2           1 RES     
    1804 CH2         45.1819     6.2660    71.9282 CH2           1 RES     
    1805 CH2         46.5632     6.4366    71.2691 CH2           1 RES     
    1806 CH2         46.4162     6.3529    69.7384 CH2           1 RES     
    1807 CH2         47.7975     6.5235    69.0792 CH2           1 RES     
    1808 CH2         47.6506     6.4397    67.5485 CH2           1 RES     
    1809 CH2         49.0319     6.6103    66.8894 CH2           1 RES     
    1810 CH2         48.8849     6.5266    65.3587 CH2           1 RES     
    1811 OA          42.8511     6.1709    77.7441 OA            1 RES     
    1812 H           43.0086     5.2840    78.0760 H             1 RES     
    1813 CH3         32.9840    19.8423    64.7295 CH3           1 RES     
    1814 CH2         26.0763    16.8853    76.3079 CH2           1 RES     
    1815 CH2         27.3309    17.4879    75.6487 CH2           1 RES     
    1816 CH2         27.2183    17.3616    74.1180 CH2           1 RES     
    1817 CH2         28.4729    17.9643    73.4589 CH2           1 RES     
    1818 CH2         28.3604    17.8380    71.9282 CH2           1 RES     
    1819 CH2         29.6149    18.4407    71.2691 CH2           1 RES     
    1820 CH2         29.5024    18.3144    69.7384 CH2           1 RES     
    1821 CH2         30.7569    18.9170    69.0792 CH2           1 RES     
    1822 CH2         30.6444    18.7907    67.5485 CH2           1 RES     
    1823 CH2         31.8990    19.3934    66.8894 CH2           1 RES     
    1824 CH2         31.7864    19.2671    65.3587 CH2           1 RES     
    1825 OA          26.1819    17.0038    77.7441 OA            1 RES     
    1826 H           26.6143    16.2135    78.0760 H             1 RES     
    1827 CH3         17.4269    44.8796    64.7295 CH3           1 RES     
    1828 CH2          9.9317    44.3483    76.3079 CH2           1 RES     
    1829 CH2         11.3145    44.5068    75.6487 CH2           1 RES     
    1830 CH2         11.1668    44.4243    74.1180 CH2           1 RES     
    1831 CH2         12.5495    44.5828    73.4589 CH2           1 RES     
    1832 CH2         12.4018    44.5003    71.9282 CH2           1 RES     
    1833 CH2         13.7846    44.6588    71.2691 CH2           1 RES     
    1834 CH2         13.6369    44.5763    69.7384 CH2           1 RES     
    1835 CH2         15.0196    44.7348    69.0792 CH2           1 RES     
    1836 CH2         14.8719    44.6523    67.5485 CH2           1 RES     
    1837 CH2         16.2547    44.8108    66.8894 CH2           1 RES     
    1838 CH2         16.1070    44.7283    65.3587 CH2           1 RES     
    1839 OA          10.0703    44.4257    77.7441 OA            1 RES     
    1840 H           10.2200    43.5374    78.0760 H             1 RES     
    1841 CH3         39.4097     5.3366    64.7295 CH3           1 RES     
    1842 CH2         31.9380     6.1330    76.3079 CH2           1 RES     
    1843 CH2         33.3271     6.0456    75.6487 CH2           1 RES     
    1844 CH2         33.1672     5.9904    74.1180 CH2           1 RES     
    1845 CH2         34.5562     5.9030    73.4589 CH2           1 RES     
    1846 CH2         34.3963     5.8478    71.9282 CH2           1 RES     
    1847 CH2         35.7854     5.7604    71.2691 CH2           1 RES     
    1848 CH2         35.6255     5.7052    69.7384 CH2           1 RES     
    1849 CH2         37.0145     5.6178    69.0792 CH2           1 RES     
    1850 CH2         36.8546     5.5626    67.5485 CH2           1 RES     
    1851 CH2         38.2437     5.4752    66.8894 CH2           1 RES     
    1852 CH2         38.0838     5.4200    65.3587 CH2           1 RES     
    1853 OA          32.0881     6.1848    77.7441 OA            1 RES     
    1854 H           32.0791     5.2840    78.0760 H             1 RES     
    1855 CH3         22.7557    25.2086    64.7295 CH3           1 RES     
    1856 CH2         15.7789    27.9985    76.3079 CH2           1 RES     
    1857 CH2         17.0924    27.5382    75.6487 CH2           1 RES     
    1858 CH2         16.9235    27.5284    74.1180 CH2           1 RES     
    1859 CH2         18.2370    27.0681    73.4589 CH2           1 RES     
    1860 CH2         18.0681    27.0583    71.9282 CH2           1 RES     
    1861 CH2         19.3816    26.5980    71.2691 CH2           1 RES     
    1862 CH2         19.2127    26.5882    69.7384 CH2           1 RES     
    1863 CH2         20.5262    26.1279    69.0792 CH2           1 RES     
    1864 CH2         20.3573    26.1181    67.5485 CH2           1 RES     
    1865 CH2         21.6708    25.6578    66.8894 CH2           1 RES     
    1866 CH2         21.5020    25.6480    65.3587 CH2           1 RES     
    1867 OA          15.9373    28.0078    77.7441 OA            1 RES     
    1868 H           15.6848    27.1431    78.0760 H             1 RES     
    1869 CH3         33.9269    10.2318    64.7295 CH3           1 RES     
    1870 CH2         26.5396    11.6061    76.3079 CH2           1 RES     
    1871 CH2         27.9177    11.4111    75.6487 CH2           1 RES     
    1872 CH2         27.7540    11.3685    74.1180 CH2           1 RES     
    1873 CH2         29.1321    11.1735    73.4589 CH2           1 RES     
    1874 CH2         28.9683    11.1309    71.9282 CH2           1 RES     
    1875 CH2         30.3464    10.9358    71.2691 CH2           1 RES     
    1876 CH2         30.1827    10.8932    69.7384 CH2           1 RES     
    1877 CH2         31.5608    10.6982    69.0792 CH2           1 RES     
    1878 CH2         31.3971    10.6556    67.5485 CH2           1 RES     
    1879 CH2         32.7751    10.4606    66.8894 CH2           1 RES     
    1880 CH2         32.6114    10.4180    65.3587 CH2           1 RES     
    1881 OA          26.6932    11.6461    77.7441 OA            1 RES     
    1882 H           26.6143    10.7488    78.0760 H             1 RES     
    1883 CH3         38.9562    40.9985    64.7295 CH3           1 RES     
    1884 CH2         32.2468    44.3815    76.3079 CH2           1 RES     
    1885 CH2         33.5156    43.8093    75.6487 CH2           1 RES     
    1886 CH2         33.3465    43.8141    74.1180 CH2           1 RES     
    1887 CH2         34.6152    43.2419    73.4589 CH2           1 RES     
    1888 CH2         34.4462    43.2468    71.9282 CH2           1 RES     
    1889 CH2         35.7149    42.6746    71.2691 CH2           1 RES     
    1890 CH2         35.5458    42.6794    69.7384 CH2           1 RES     
    1891 CH2         36.8146    42.1072    69.0792 CH2           1 RES     
    1892 CH2         36.6455    42.1120    67.5485 CH2           1 RES     
    1893 CH2         37.9142    41.5398    66.8894 CH2           1 RES     
    1894 CH2         37.7451    41.5446    65.3587 CH2           1 RES     
    1895 OA          32.4055    44.3770    77.7441 OA            1 RES     
    1896 H           32.0791    43.5374    78.0760 H             1 RES     
    1897 CH3         55.5675    39.9205    64.7295 CH3           1 RES     
    1898 CH2         48.1285    38.8611    76.3079 CH2           1 RES     
    1899 CH2         49.4966    39.1169    75.6487 CH2           1 RES     
    1900 CH2         49.3551    39.0242    74.1180 CH2           1 RES     
    1901 CH2         50.7232    39.2799    73.4589 CH2           1 RES     
    1902 CH2         50.5817    39.1872    71.9282 CH2           1 RES     
    1903 CH2         51.9499    39.4430    71.2691 CH2           1 RES     
    1904 CH2         51.8084    39.3503    69.7384 CH2           1 RES     
    1905 CH2         53.1765    39.6060    69.0792 CH2           1 RES     
    1906 CH2         53.0350    39.5133    67.5485 CH2           1 RES     
    1907 CH2         54.4031    39.7690    66.8894 CH2           1 RES     
    1908 CH2         54.2616    39.6763    65.3587 CH2           1 RES     
    1909 OA          48.2613    38.9481    77.7441 OA            1 RES     
    1910 H           48.4734    38.0726    78.0760 H             1 RES     
    1911 CH3         17.1674    24.8032    64.7295 CH3           1 RES     
    1912 CH2         10.3634    27.9917    76.3079 CH2           1 RES     
    1913 CH2         11.6481    27.4562    75.6487 CH2           1 RES     
    1914 CH2         11.4789    27.4562    74.1180 CH2           1 RES     
    1915 CH2         12.7636    26.9208    73.4589 CH2           1 RES     
    1916 CH2         12.5945    26.9207    71.9282 CH2           1 RES     
    1917 CH2         13.8792    26.3853    71.2691 CH2           1 RES     
    1918 CH2         13.7100    26.3852    69.7384 CH2           1 RES     
    1919 CH2         14.9947    25.8498    69.0792 CH2           1 RES     
    1920 CH2         14.8255    25.8498    67.5485 CH2           1 RES     
    1921 CH2         16.1102    25.3143    66.8894 CH2           1 RES     
    1922 CH2         15.9411    25.3143    65.3587 CH2           1 RES     
    1923 OA          10.5221    27.9917    77.7441 OA            1 RES     
    1924 H           10.2200    27.1431    78.0760 H             1 RES     
    1925 CH3         49.7899    35.3926    64.7295 CH3           1 RES     
    1926 CH2         42.5609    33.3428    76.3079 CH2           1 RES     
    1927 CH2         43.8822    33.7802    75.6487 CH2           1 RES     
    1928 CH2         43.7544    33.6693    74.1180 CH2           1 RES     
    1929 CH2         45.0758    34.1066    73.4589 CH2           1 RES     
    1930 CH2         44.9480    33.9957    71.9282 CH2           1 RES     
    1931 CH2         46.2693    34.4331    71.2691 CH2           1 RES     
    1932 CH2         46.1416    34.3222    69.7384 CH2           1 RES     
    1933 CH2         47.4629    34.7595    69.0792 CH2           1 RES     
    1934 CH2         47.3351    34.6487    67.5485 CH2           1 RES     
    1935 CH2         48.6564    35.0860    66.8894 CH2           1 RES     
    1936 CH2         48.5287    34.9751    65.3587 CH2           1 RES     
    1937 OA          42.6808    33.4469    77.7441 OA            1 RES     
    1938 H           43.0086    32.6078    78.0760 H             1 RES     
    1939 CH3         16.8856    24.7296    64.7295 CH3           1 RES     
    1940 CH2          9.7435    22.3950    76.3079 CH2           1 RES     
    1941 CH2         11.0464    22.8843    75.6487 CH2           1 RES     
    1942 CH2         10.9232    22.7685    74.1180 CH2           1 RES     
    1943 CH2         12.2261    23.2578    73.4589 CH2           1 RES     
    1944 CH2         12.1029    23.1420    71.9282 CH2           1 RES     
    1945 CH2         13.4058    23.6313    71.2691 CH2           1 RES     
    1946 CH2         13.2825    23.5155    69.7384 CH2           1 RES     
    1947 CH2         14.5855    24.0048    69.0792 CH2           1 RES     
    1948 CH2         14.4622    23.8890    67.5485 CH2           1 RES     
    1949 CH2         15.7652    24.3784    66.8894 CH2           1 RES     
    1950 CH2         15.6419    24.2625    65.3587 CH2           1 RES     
    1951 OA           9.8592    22.5037    77.7441 OA            1 RES     
    1952 H           10.2200    21.6783    78.0760 H             1 RES     
    1953 CH3         38.1812    38.7205    77.1075 CH3           1 RES     
    1954 CH2         38.6361    37.7917    76.0629 CH2           1 RES     
    1955 CH2         39.3844    38.5753    74.9686 CH2           1 RES     
    1956 CH2         39.8611    37.6022    73.8743 CH2           1 RES     
    1957 CH2         40.6094    38.3859    72.7799 CH2           1 RES     
    1958 CH2         41.0860    37.4128    71.6856 CH2           1 RES     
    1959 CH2         41.8343    38.1965    70.5913 CH2           1 RES     
    1960 CH2         42.3110    37.2234    69.4970 CH2           1 RES     
    1961 CH2         43.0593    38.0070    68.4027 CH2           1 RES     
    1962 CH2         43.5359    37.0340    67.3083 CH2           1 RES     
    1963 CH2         44.2842    37.8176    66.2140 CH2           1 RES     
    1964 O           38.3935    39.9017    77.0921 O             1 RES     
    1965 C           38.1975    38.6874    77.0876 C             1 RES     
    1966 OA          37.5438    38.0726    78.0760 OA            1 RES     
    1967 H           37.2908    38.7361    78.7220 H             1 RES     
    1968 CH3         27.0209    44.3502    77.1075 CH3           1 RES     
    1969 CH2         27.7400    43.6068    76.0629 CH2           1 RES     
    1970 CH2         28.2103    44.5829    74.9686 CH2           1 RES     
    1971 CH2         28.9637    43.8042    73.8743 CH2           1 RES     
    1972 CH2         29.4340    44.7803    72.7799 CH2           1 RES     
    1973 CH2         30.1874    44.0016    71.6856 CH2           1 RES     
    1974 CH2         30.6577    44.9777    70.5913 CH2           1 RES     
    1975 CH2         31.4111    44.1989    69.4970 CH2           1 RES     
    1976 CH2         31.8814    45.1751    68.4027 CH2           1 RES     
    1977 CH2         32.6348    44.3963    67.3083 CH2           1 RES     
    1978 CH2         33.1051    45.3725    66.2140 CH2           1 RES     
    1979 O           26.8588    45.5393    77.0921 O             1 RES     
    1980 C           27.0466    44.3237    77.0876 C             1 RES     
    1981 OA          26.6143    43.5374    78.0760 OA            1 RES     
    1982 H           26.1691    44.0906    78.7220 H             1 RES     
    1983 CH3         43.1315    28.0435    77.1075 CH3           1 RES     
    1984 CH2         44.0518    27.5717    76.0629 CH2           1 RES     
    1985 CH2         44.1824    28.6473    74.9686 CH2           1 RES     
    1986 CH2         45.1466    28.1530    73.8743 CH2           1 RES     
    1987 CH2         45.2771    29.2287    72.7799 CH2           1 RES     
    1988 CH2         46.2413    28.7343    71.6856 CH2           1 RES     
    1989 CH2         46.3718    29.8100    70.5913 CH2           1 RES     
    1990 CH2         47.3360    29.3156    69.4970 CH2           1 RES     
    1991 CH2         47.4665    30.3913    68.4027 CH2           1 RES     
    1992 CH2         48.4308    29.8970    67.3083 CH2           1 RES     
    1993 CH2         48.5613    30.9726    66.2140 CH2           1 RES     
    1994 O           42.5947    29.1169    77.0921 O             1 RES     
    1995 C           43.1644    28.0268    77.0876 C             1 RES     
    1996 OA          43.0086    27.1431    78.0760 OA            1 RES     
    1997 H           42.4088    27.5232    78.7220 H             1 RES     
    1998 CH3         27.2477    38.7243    77.1075 CH3           1 RES     
    1999 CH2         27.7083    37.7982    76.0629 CH2           1 RES     
    2000 CH2         28.4519    38.5863    74.9686 CH2           1 RES     
    2001 CH2         28.9343    37.6161    73.8743 CH2           1 RES     
    2002 CH2         29.6779    38.4042    72.7799 CH2           1 RES     
    2003 CH2         30.1604    37.4340    71.6856 CH2           1 RES     
    2004 CH2         30.9040    38.2221    70.5913 CH2           1 RES     
    2005 CH2         31.3864    37.2519    69.4970 CH2           1 RES     
    2006 CH2         32.1300    38.0400    68.4027 CH2           1 RES     
    2007 CH2         32.6125    37.0698    67.3083 CH2           1 RES     
    2008 CH2         33.3561    37.8579    66.2140 CH2           1 RES     
    2009 O           27.4530    39.9067    77.0921 O             1 RES     
    2010 C           27.2643    38.6913    77.0876 C             1 RES     
    2011 OA          26.6143    38.0726    78.0760 OA            1 RES     
    2012 H           26.3573    38.7346    78.7220 H             1 RES     
    2013 CH3         21.7535    44.2165    77.1075 CH3           1 RES     
    2014 CH2         22.2546    43.3117    76.0629 CH2           1 RES     
    2015 CH2         22.9625    44.1319    74.9686 CH2           1 RES     
    2016 CH2         23.4875    43.1841    73.8743 CH2           1 RES     
    2017 CH2         24.1954    44.0043    72.7799 CH2           1 RES     
    2018 CH2         24.7204    43.0564    71.6856 CH2           1 RES     
    2019 CH2         25.4284    43.8767    70.5913 CH2           1 RES     
    2020 CH2         25.9533    42.9288    69.4970 CH2           1 RES     
    2021 CH2         26.6613    43.7491    68.4027 CH2           1 RES     
    2022 CH2         27.1862    42.8012    67.3083 CH2           1 RES     
    2023 CH2         27.8942    43.6214    66.2140 CH2           1 RES     
    2024 O           21.9062    45.4068    77.0921 O             1 RES     
    2025 C           21.7715    44.1843    77.0876 C             1 RES     
    2026 OA          21.1495    43.5374    78.0760 OA            1 RES     
    2027 H           20.8635    44.1873    78.7220 H             1 RES     
    2028 CH3         10.4059     6.1736    77.1075 CH3           1 RES     
    2029 CH2         11.2908     5.6381    76.0629 CH2           1 RES     
    2030 CH2         11.4967     6.7019    74.9686 CH2           1 RES     
    2031 CH2         12.4237     6.1409    73.8743 CH2           1 RES     
    2032 CH2         12.6297     7.2047    72.7799 CH2           1 RES     
    2033 CH2         13.5567     6.6437    71.6856 CH2           1 RES     
    2034 CH2         13.7626     7.7075    70.5913 CH2           1 RES     
    2035 CH2         14.6896     7.1466    69.4970 CH2           1 RES     
    2036 CH2         14.8955     8.2104    68.4027 CH2           1 RES     
    2037 CH2         15.8225     7.6494    67.3083 CH2           1 RES     
    2038 CH2         16.0284     8.7132    66.2140 CH2           1 RES     
    2039 O            9.9460     7.2821    77.0921 O             1 RES     
    2040 C           10.4376     6.1546    77.0876 C             1 RES     
    2041 OA          10.2200     5.2840    78.0760 OA            1 RES     
    2042 H            9.6484     5.7054    78.7220 H             1 RES     
    2043 CH3         37.9519    17.0256    77.1075 CH3           1 RES     
    2044 CH2         38.6697    16.2810    76.0629 CH2           1 RES     
    2045 CH2         39.1417    17.2563    74.9686 CH2           1 RES     
    2046 CH2         39.8937    16.4762    73.8743 CH2           1 RES     
    2047 CH2         40.3657    17.4515    72.7799 CH2           1 RES     
    2048 CH2         41.1177    16.6714    71.6856 CH2           1 RES     
    2049 CH2         41.5898    17.6467    70.5913 CH2           1 RES     
    2050 CH2         42.3418    16.8666    69.4970 CH2           1 RES     
    2051 CH2         42.8138    17.8419    68.4027 CH2           1 RES     
    2052 CH2         43.5658    17.0618    67.3083 CH2           1 RES     
    2053 CH2         44.0378    18.0371    66.2140 CH2           1 RES     
    2054 O           37.7919    18.2150    77.0921 O             1 RES     
    2055 C           37.9776    16.9991    77.0876 C             1 RES     
    2056 OA          37.5438    16.2135    78.0760 OA            1 RES     
    2057 H           37.0996    16.7675    78.7220 H             1 RES     
    2058 CH3         49.2639    22.1267    77.1075 CH3           1 RES     
    2059 CH2         49.4468    21.1087    76.0629 CH2           1 RES     
    2060 CH2         50.3813    21.6573    74.9686 CH2           1 RES     
    2061 CH2         50.5730    20.5908    73.8743 CH2           1 RES     
    2062 CH2         51.5074    21.1394    72.7799 CH2           1 RES     
    2063 CH2         51.6991    20.0729    71.6856 CH2           1 RES     
    2064 CH2         52.6335    20.6215    70.5913 CH2           1 RES     
    2065 CH2         52.8252    19.5550    69.4970 CH2           1 RES     
    2066 CH2         53.7596    20.1036    68.4027 CH2           1 RES     
    2067 CH2         53.9513    19.0371    67.3083 CH2           1 RES     
    2068 CH2         54.8857    19.5857    66.2140 CH2           1 RES     
    2069 O           49.7918    23.2045    77.0921 O             1 RES     
    2070 C           49.2705    22.0904    77.0876 C             1 RES     
    2071 OA          48.4734    21.6783    78.0760 OA            1 RES     
    2072 H           48.4119    22.3857    78.7220 H             1 RES     
    2073 CH3         15.7964    33.5098    77.1075 CH3           1 RES     
    2074 CH2         16.7226    33.0494    76.0629 CH2           1 RES     
    2075 CH2         16.8398    34.1265    74.9686 CH2           1 RES     
    2076 CH2         17.8100    33.6442    73.8743 CH2           1 RES     
    2077 CH2         17.9272    34.7214    72.7799 CH2           1 RES     
    2078 CH2         18.8975    34.2391    71.6856 CH2           1 RES     
    2079 CH2         19.0146    35.3162    70.5913 CH2           1 RES     
    2080 CH2         19.9849    34.8339    69.4970 CH2           1 RES     
    2081 CH2         20.1021    35.9111    68.4027 CH2           1 RES     
    2082 CH2         21.0723    35.4288    67.3083 CH2           1 RES     
    2083 CH2         21.1895    36.5060    66.2140 CH2           1 RES     
    2084 O           15.2464    34.5764    77.0921 O             1 RES     
    2085 C           15.8295    33.4934    77.0876 C             1 RES     
    2086 OA          15.6848    32.6078    78.0760 OA            1 RES     
    2087 H           15.0803    32.9805    78.7220 H             1 RES     
    2088 CH3         38.2629    27.6988    77.1075 CH3           1 RES     
    2089 CH2         38.5881    26.7170    76.0629 CH2           1 RES     
    2090 CH2         39.4355    27.3923    74.9686 CH2           1 RES     
    2091 CH2         39.7762    26.3637    73.8743 CH2           1 RES     
    2092 CH2         40.6236    27.0390    72.7799 CH2           1 RES     
    2093 CH2         40.9643    26.0104    71.6856 CH2           1 RES     
    2094 CH2         41.8117    26.6856    70.5913 CH2           1 RES     
    2095 CH2         42.1523    25.6570    69.4970 CH2           1 RES     
    2096 CH2         42.9997    26.3323    68.4027 CH2           1 RES     
    2097 CH2         43.3404    25.3037    67.3083 CH2           1 RES     
    2098 CH2         44.1878    25.9790    66.2140 CH2           1 RES     
    2099 O           38.6330    28.8405    77.0921 O             1 RES     
    2100 C           38.2746    27.6638    77.0876 C             1 RES     
    2101 OA          37.5438    27.1431    78.0760 OA            1 RES     
    2102 H           37.3828    27.8347    78.7220 H             1 RES     
    2103 CH3         38.0825    44.2694    77.1075 CH3           1 RES     
    2104 CH2         38.6650    43.4147    76.0629 CH2           1 RES     
    2105 CH2         39.2942    44.2969    74.9686 CH2           1 RES     
    2106 CH2         39.9044    43.4015    73.8743 CH2           1 RES     
    2107 CH2         40.5336    44.2837    72.7799 CH2           1 RES     
    2108 CH2         41.1439    43.3883    71.6856 CH2           1 RES     
    2109 CH2         41.7730    44.2705    70.5913 CH2           1 RES     
    2110 CH2         42.3833    43.3751    69.4970 CH2           1 RES     
    2111 CH2         43.0125    44.2573    68.4027 CH2           1 RES     
    2112 CH2         43.6227    43.3619    67.3083 CH2           1 RES     
    2113 CH2         44.2519    44.2441    66.2140 CH2           1 RES     
    2114 O           38.1246    45.4687    77.0921 O             1 RES     
    2115 C           38.1034    44.2389    77.0876 C             1 RES     
    2116 OA          37.5438    43.5374    78.0760 OA            1 RES     
    2117 H           37.1990    44.1581    78.7220 H             1 RES     
    2118 CH3         32.3764    28.0019    77.1075 CH3           1 RES     
    2119 CH2         33.1862    27.3584    76.0629 CH2           1 RES     
    2120 CH2         33.5254    28.3875    74.9686 CH2           1 RES     
    2121 CH2         34.3738    27.7134    73.8743 CH2           1 RES     
    2122 CH2         34.7130    28.7424    72.7799 CH2           1 RES     
    2123 CH2         35.5614    28.0683    71.6856 CH2           1 RES     
    2124 CH2         35.9006    29.0974    70.5913 CH2           1 RES     
    2125 CH2         36.7489    28.4233    69.4970 CH2           1 RES     
    2126 CH2         37.0882    29.4523    68.4027 CH2           1 RES     
    2127 CH2         37.9365    28.7782    67.3083 CH2           1 RES     
    2128 CH2         38.2758    29.8073    66.2140 CH2           1 RES     
    2129 O           32.0609    29.1598    77.0921 O             1 RES     
    2130 C           32.4054    27.9790    77.0876 C             1 RES     
    2131 OA          32.0791    27.1431    78.0760 OA            1 RES     
    2132 H           31.5656    27.6336    78.7220 H             1 RES     
    2133 CH3         37.8094    11.6179    77.1075 CH3           1 RES     
    2134 CH2         38.6423    11.0046    76.0629 CH2           1 RES     
    2135 CH2         38.9435    12.0454    74.9686 CH2           1 RES     
    2136 CH2         39.8160    11.4029    73.8743 CH2           1 RES     
    2137 CH2         40.1173    12.4438    72.7799 CH2           1 RES     
    2138 CH2         40.9898    11.8013    71.6856 CH2           1 RES     
    2139 CH2         41.2910    12.8421    70.5913 CH2           1 RES     
    2140 CH2         42.1635    12.1996    69.4970 CH2           1 RES     
    2141 CH2         42.4648    13.2404    68.4027 CH2           1 RES     
    2142 CH2         43.3373    12.5979    67.3083 CH2           1 RES     
    2143 CH2         43.6386    13.6387    66.2140 CH2           1 RES     
    2144 O           37.4516    12.7634    77.0921 O             1 RES     
    2145 C           37.8392    11.5961    77.0876 C             1 RES     
    2146 OA          37.5438    10.7488    78.0760 OA            1 RES     
    2147 H           37.0127    11.2201    78.7220 H             1 RES     
    2148 CH3         21.6045    11.5355    77.1075 CH3           1 RES     
    2149 CH2         22.2774    10.7500    76.0629 CH2           1 RES     
    2150 CH2         22.8058    11.6959    74.9686 CH2           1 RES     
    2151 CH2         23.5108    10.8730    73.8743 CH2           1 RES     
    2152 CH2         24.0392    11.8190    72.7799 CH2           1 RES     
    2153 CH2         24.7441    10.9961    71.6856 CH2           1 RES     
    2154 CH2         25.2726    11.9420    70.5913 CH2           1 RES     
    2155 CH2         25.9775    11.1191    69.4970 CH2           1 RES     
    2156 CH2         26.5060    12.0650    68.4027 CH2           1 RES     
    2157 CH2         27.2109    11.2422    67.3083 CH2           1 RES     
    2158 CH2         27.7394    12.1881    66.2140 CH2           1 RES     
    2159 O           21.5146    12.7322    77.0921 O             1 RES     
    2160 C           21.6286    11.5075    77.0876 C             1 RES     
    2161 OA          21.1495    10.7488    78.0760 OA            1 RES     
    2162 H           20.7386    11.3279    78.7220 H             1 RES     
    2163 CH3         15.9403     6.1561    77.1075 CH3           1 RES     
    2164 CH2         16.7802     5.5525    76.0629 CH2           1 RES     
    2165 CH2         17.0694     6.5968    74.9686 CH2           1 RES     
    2166 CH2         17.9492     5.9644    73.8743 CH2           1 RES     
    2167 CH2         18.2384     7.0087    72.7799 CH2           1 RES     
    2168 CH2         19.1183     6.3763    71.6856 CH2           1 RES     
    2169 CH2         19.4075     7.4206    70.5913 CH2           1 RES     
    2170 CH2         20.2874     6.7882    69.4970 CH2           1 RES     
    2171 CH2         20.5765     7.8325    68.4027 CH2           1 RES     
    2172 CH2         21.4564     7.2001    67.3083 CH2           1 RES     
    2173 CH2         21.7456     8.2444    66.2140 CH2           1 RES     
    2174 O           15.5692     7.2975    77.0921 O             1 RES     
    2175 C           15.9703     6.1347    77.0876 C             1 RES     
    2176 OA          15.6848     5.2840    78.0760 OA            1 RES     
    2177 H           15.1482     5.7492    78.7220 H             1 RES     
    2178 CH3         48.7109    44.4146    77.1075 CH3           1 RES     
    2179 CH2         49.5630    43.8284    76.0629 CH2           1 RES     
    2180 CH2         49.8307    44.8784    74.9686 CH2           1 RES     
    2181 CH2         50.7234    44.2642    73.8743 CH2           1 RES     
    2182 CH2         50.9910    45.3142    72.7799 CH2           1 RES     
    2183 CH2         51.8837    44.7001    71.6856 CH2           1 RES     
    2184 CH2         52.1514    45.7500    70.5913 CH2           1 RES     
    2185 CH2         53.0441    45.1359    69.4970 CH2           1 RES     
    2186 CH2         53.3117    46.1859    68.4027 CH2           1 RES     
    2187 CH2         54.2044    45.5718    67.3083 CH2           1 RES     
    2188 CH2         54.4721    46.6217    66.2140 CH2           1 RES     
    2189 O           48.3165    45.5480    77.0921 O             1 RES     
    2190 C           48.7414    44.3938    77.0876 C             1 RES     
    2191 OA          48.4734    43.5374    78.0760 OA            1 RES     
    2192 H           47.9274    43.9914    78.7220 H             1 RES     
    2193 CH3         41.5215    43.5374    31.1886 CH3           1 RES     
    2194 CH3         43.6193    44.4437    31.7462 CH3           1 RES     
    2195 CH3         42.4296    45.2684    30.1069 CH3           1 RES     
    2196 NL          42.3827    44.6747    31.2884 NL            1 RES     
    2197 CH2         41.7485    45.6335    32.0739 CH2           1 RES     
    2198 CH2         41.7111    44.9136    33.4348 CH2           1 RES     
    2199 OA          41.0561    45.7882    34.4404 OA            1 RES     
    2200 P           42.1891    46.6821    35.1311 P             1 RES     
    2201 OM          43.1996    45.6723    35.8518 OM            1 RES     
    2202 OM          42.8485    47.5686    33.9738 OM            1 RES     
    2203 OA          41.5208    47.6406    36.2241 OA            1 RES     
    2204 CH2         42.5990    48.4530    36.8427 CH2           1 RES     
    2205 CH1         42.3192    48.7837    38.1300 CH1           1 RES     
    2206 OE          43.4766    47.9309    38.4367 OE            1 RES     
    2207 C           43.6795    47.2124    39.7377 C             1 RES     
    2208 O           44.3063    46.1615    39.8628 O             1 RES     
    2209 CH2         42.8404    47.9147    40.6193 CH2           1 RES     
    2210 CH2         42.9538    47.0836    41.9107 CH2           1 RES     
    2211 CH2         41.9508    47.6130    42.9525 CH2           1 RES     
    2212 CH2         42.0642    46.7818    44.2440 CH2           1 RES     
    2213 CH2         41.0611    47.3112    45.2857 CH2           1 RES     
    2214 CH2         41.1745    46.4801    46.5772 CH2           1 RES     
    2215 CH2         40.1715    47.0095    47.6190 CH2           1 RES     
    2216 CH2         40.2849    46.1783    48.9105 CH2           1 RES     
    2217 CH2         39.2819    46.7077    49.9522 CH2           1 RES     
    2218 CH2         39.3953    45.8766    51.2437 CH2           1 RES     
    2219 CH2         38.3922    46.4060    52.2855 CH2           1 RES     
    2220 CH2         38.5056    45.5748    53.5769 CH2           1 RES     
    2221 CH2         37.5026    46.1042    54.6187 CH2           1 RES     
    2222 CH2         37.6160    45.2730    55.9102 CH2           1 RES     
    2223 CH2         36.6130    45.8025    56.9519 CH2           1 RES     
    2224 CH2         36.7264    44.9713    58.2434 CH2           1 RES     
    2225 CH3         35.7689    45.4766    59.2378 CH3           1 RES     
    2226 CH2         41.0257    48.0682    38.5619 CH2           1 RES     
    2227 OE          41.3219    47.5353    39.8933 OE            1 RES     
    2228 C           39.9975    46.8857    40.1650 C             1 RES     
    2229 O           39.0452    46.8930    39.3866 O             1 RES     
    2230 CH2         40.1030    46.5083    41.5145 CH2           1 RES     
    2231 CH2         38.6918    45.9702    41.8150 CH2           1 RES     
    2232 CH2         38.5671    45.6662    43.3195 CH2           1 RES     
    2233 CH2         37.1559    45.1280    43.6201 CH2           1 RES     
    2234 CH2         37.0312    44.8240    45.1246 CH2           1 RES     
    2235 CH2         35.6200    44.2859    45.4252 CH2           1 RES     
    2236 CH2         35.4953    43.9818    46.9297 CH2           1 RES     
    2237 CH2         34.0841    43.4437    47.2302 CH2           1 RES     
    2238 CH2         33.9594    43.1397    48.7348 CH2           1 RES     
    2239 CH2         32.5482    42.6016    49.0353 CH2           1 RES     
    2240 CH2         32.4235    42.2975    50.5398 CH2           1 RES     
    2241 CH2         31.0123    41.7594    50.8404 CH2           1 RES     
    2242 CH2         30.8876    41.4553    52.3449 CH2           1 RES     
    2243 CH2         29.4764    40.9172    52.6454 CH2           1 RES     
    2244 CH2         29.3517    40.6132    54.1500 CH2           1 RES     
    2245 CH2         27.9405    40.0751    54.4505 CH2           1 RES     
    2246 CH3         27.8215    39.7848    55.8866 CH3           1 RES     
    2247 CH3         19.6625    21.6783    31.1886 CH3           1 RES     
    2248 CH3         21.8314    20.9586    31.7462 CH3           1 RES     
    2249 CH3         21.4923    22.3659    30.1069 CH3           1 RES     
    2250 NL          21.0621    21.9540    31.2884 NL            1 RES     
    2251 CH2         21.2270    23.0917    32.0739 CH2           1 RES     
    2252 CH2         20.7199    22.5792    33.4348 CH2           1 RES     
    2253 OA          20.8131    23.6680    34.4404 OA            1 RES     
    2254 P           22.2537    23.5810    35.1311 P             1 RES     
    2255 OM          22.3358    22.1548    35.8518 OM            1 RES     
    2256 OM          23.3358    23.8038    33.9738 OM            1 RES     
    2257 OA          22.3928    24.7412    36.2241 OA            1 RES     
    2258 CH2         23.7382    24.6299    36.8427 CH2           1 RES     
    2259 CH1         23.7495    25.0630    38.1300 CH1           1 RES     
    2260 OE          24.0458    23.6562    38.4367 OE            1 RES     
    2261 C           23.7190    22.9849    39.7377 C             1 RES     
    2262 O           23.4874    21.7834    39.8628 O             1 RES     
    2263 CH2         23.5602    24.0675    40.6193 CH2           1 RES     
    2264 CH2         23.0916    23.3717    41.9107 CH2           1 RES     
    2265 CH2         22.6954    24.4344    42.9525 CH2           1 RES     
    2266 CH2         22.2268    23.7386    44.2440 CH2           1 RES     
    2267 CH2         21.8306    24.8013    45.2857 CH2           1 RES     
    2268 CH2         21.3620    24.1055    46.5772 CH2           1 RES     
    2269 CH2         20.9658    25.1682    47.6190 CH2           1 RES     
    2270 CH2         20.4972    24.4724    48.9105 CH2           1 RES     
    2271 CH2         20.1010    25.5351    49.9522 CH2           1 RES     
    2272 CH2         19.6324    24.8393    51.2437 CH2           1 RES     
    2273 CH2         19.2361    25.9020    52.2855 CH2           1 RES     
    2274 CH2         18.7676    25.2062    53.5769 CH2           1 RES     
    2275 CH2         18.3713    26.2689    54.6187 CH2           1 RES     
    2276 CH2         17.9028    25.5731    55.9102 CH2           1 RES     
    2277 CH2         17.5065    26.6358    56.9519 CH2           1 RES     
    2278 CH2         17.0380    25.9400    58.2434 CH2           1 RES     
    2279 CH3         16.6597    26.9544    59.2378 CH3           1 RES     
    2280 CH2         22.3079    25.3899    38.5619 CH2           1 RES     
    2281 OE          22.1743    24.7950    39.8933 OE            1 RES     
    2282 C           20.7535    25.1917    40.1650 C             1 RES     
    2283 O           20.0476    25.8310    39.3866 O             1 RES     
    2284 CH2         20.5811    24.8397    41.5145 CH2           1 RES     
    2285 CH2         19.1697    25.3774    41.8150 CH2           1 RES     
    2286 CH2         18.8743    25.2334    43.3195 CH2           1 RES     
    2287 CH2         17.4629    25.7711    43.6201 CH2           1 RES     
    2288 CH2         17.1675    25.6271    45.1246 CH2           1 RES     
    2289 CH2         15.7560    26.1648    45.4252 CH2           1 RES     
    2290 CH2         15.4607    26.0208    46.9297 CH2           1 RES     
    2291 CH2         14.0492    26.5585    47.2302 CH2           1 RES     
    2292 CH2         13.7538    26.4145    48.7348 CH2           1 RES     
    2293 CH2         12.3424    26.9522    49.0353 CH2           1 RES     
    2294 CH2         12.0470    26.8082    50.5398 CH2           1 RES     
    2295 CH2         10.6356    27.3459    50.8404 CH2           1 RES     
    2296 CH2         10.3402    27.2019    52.3449 CH2           1 RES     
    2297 CH2          8.9288    27.7396    52.6454 CH2           1 RES     
    2298 CH2          8.6334    27.5956    54.1500 CH2           1 RES     
    2299 CH2          7.2219    28.1333    54.4505 CH2           1 RES     
    2300 CH3          6.9400    27.9958    55.8866 CH3           1 RES     
    2301 CH3         36.0568    43.5374    31.1886 CH3           1 RES     
    2302 CH3         37.8470    44.9577    31.7462 CH3           1 RES     
    2303 CH3         36.4838    45.4449    30.1069 CH3           1 RES     
    2304 NL          36.5928    44.8594    31.2884 NL            1 RES     
    2305 CH2         35.7313    45.6205    32.0739 CH2           1 RES     
    2306 CH2         35.8822    44.9156    33.4348 CH2           1 RES     
    2307 OA          35.0224    45.5899    34.4404 OA            1 RES     
    2308 P           35.8843    46.7475    35.1311 P             1 RES     
    2309 OM          37.1224    46.0350    35.8518 OM            1 RES     
    2310 OM          36.2906    47.7749    33.9738 OM            1 RES     
    2311 OA          34.9898    47.4995    36.2241 OA            1 RES     
    2312 CH2         35.8199    48.5641    36.8427 CH2           1 RES     
    2313 CH1         35.4637    48.8107    38.1300 CH1           1 RES     
    2314 OE          36.8030    48.2880    38.4367 OE            1 RES     
    2315 C           37.1857    47.6469    39.7377 C             1 RES     
    2316 O           38.0640    46.7950    39.8628 O             1 RES     
    2317 CH2         36.1929    48.1071    40.6193 CH2           1 RES     
    2318 CH2         36.5183    47.3339    41.9107 CH2           1 RES     
    2319 CH2         35.4122    47.5845    42.9525 CH2           1 RES     
    2320 CH2         35.7377    46.8114    44.2440 CH2           1 RES     
    2321 CH2         34.6315    47.0620    45.2857 CH2           1 RES     
    2322 CH2         34.9570    46.2888    46.5772 CH2           1 RES     
    2323 CH2         33.8509    46.5394    47.6190 CH2           1 RES     
    2324 CH2         34.1764    45.7662    48.9105 CH2           1 RES     
    2325 CH2         33.0702    46.0168    49.9522 CH2           1 RES     
    2326 CH2         33.3957    45.2437    51.2437 CH2           1 RES     
    2327 CH2         32.2896    45.4943    52.2855 CH2           1 RES     
    2328 CH2         32.6150    44.7211    53.5769 CH2           1 RES     
    2329 CH2         31.5089    44.9717    54.6187 CH2           1 RES     
    2330 CH2         31.8344    44.1986    55.9102 CH2           1 RES     
    2331 CH2         30.7282    44.4491    56.9519 CH2           1 RES     
    2332 CH2         31.0537    43.6760    58.2434 CH2           1 RES     
    2333 CH3         29.9978    43.9152    59.2378 CH3           1 RES     
    2334 CH2         34.4006    47.7837    38.5619 CH2           1 RES     
    2335 OE          34.8252    47.3461    39.8933 OE            1 RES     
    2336 C           33.7150    46.3746    40.1650 C             1 RES     
    2337 O           32.7935    46.1343    39.3866 O             1 RES     
    2338 CH2         33.9150    46.0377    41.5145 CH2           1 RES     
    2339 CH2         32.6920    45.1513    41.8150 CH2           1 RES     
    2340 CH2         32.6507    44.8253    43.3195 CH2           1 RES     
    2341 CH2         31.4277    43.9390    43.6201 CH2           1 RES     
    2342 CH2         31.3864    43.6130    45.1246 CH2           1 RES     
    2343 CH2         30.1634    42.7266    45.4252 CH2           1 RES     
    2344 CH2         30.1221    42.4006    46.9297 CH2           1 RES     
    2345 CH2         28.8991    41.5143    47.2302 CH2           1 RES     
    2346 CH2         28.8578    41.1883    48.7348 CH2           1 RES     
    2347 CH2         27.6348    40.3019    49.0353 CH2           1 RES     
    2348 CH2         27.5935    39.9760    50.5398 CH2           1 RES     
    2349 CH2         26.3705    39.0896    50.8404 CH2           1 RES     
    2350 CH2         26.3292    38.7636    52.3449 CH2           1 RES     
    2351 CH2         25.1062    37.8773    52.6454 CH2           1 RES     
    2352 CH2         25.0649    37.5513    54.1500 CH2           1 RES     
    2353 CH2         23.8419    36.6649    54.4505 CH2           1 RES     
    2354 CH3         23.8025    36.3537    55.8866 CH3           1 RES     
    2355 CH3         25.1272    10.7488    31.1886 CH3           1 RES     
    2356 CH3         27.4099    10.8557    31.7462 CH3           1 RES     
    2357 CH3         26.5882    12.0474    30.1069 CH3           1 RES     
    2358 NL          26.3346    11.5085    31.2884 NL            1 RES     
    2359 CH2         26.0800    12.6296    32.0739 CH2           1 RES     
    2360 CH2         25.7908    11.9693    33.4348 CH2           1 RES     
    2361 OA          25.4869    13.0189    34.4404 OA            1 RES     
    2362 P           26.8626    13.4549    35.1311 P             1 RES     
    2363 OM          27.4513    12.1532    35.8518 OM            1 RES     
    2364 OM          27.7926    14.0513    33.9738 OM            1 RES     
    2365 OA          26.5760    14.5877    36.2241 OA            1 RES     
    2366 CH2         27.8716    14.9668    36.8427 CH2           1 RES     
    2367 CH1         27.7267    15.3751    38.1300 CH1           1 RES     
    2368 OE          28.5083    14.1684    38.4367 OE            1 RES     
    2369 C           28.4443    13.4245    39.7377 C             1 RES     
    2370 O           28.6595    12.2200    39.8628 O             1 RES     
    2371 CH2         27.9074    14.3780    40.6193 CH2           1 RES     
    2372 CH2         27.7198    13.5604    41.9107 CH2           1 RES     
    2373 CH2         26.9685    14.4100    42.9525 CH2           1 RES     
    2374 CH2         26.7810    13.5924    44.2440 CH2           1 RES     
    2375 CH2         26.0296    14.4419    45.2857 CH2           1 RES     
    2376 CH2         25.8421    13.6243    46.5772 CH2           1 RES     
    2377 CH2         25.0907    14.4739    47.6190 CH2           1 RES     
    2378 CH2         24.9032    13.6563    48.9105 CH2           1 RES     
    2379 CH2         24.1519    14.5059    49.9522 CH2           1 RES     
    2380 CH2         23.9643    13.6882    51.2437 CH2           1 RES     
    2381 CH2         23.2130    14.5378    52.2855 CH2           1 RES     
    2382 CH2         23.0255    13.7202    53.5769 CH2           1 RES     
    2383 CH2         22.2741    14.5698    54.6187 CH2           1 RES     
    2384 CH2         22.0866    13.7522    55.9102 CH2           1 RES     
    2385 CH2         21.3353    14.6018    56.9519 CH2           1 RES     
    2386 CH2         21.1477    13.7841    58.2434 CH2           1 RES     
    2387 CH3         20.4305    14.5951    59.2378 CH3           1 RES     
    2388 CH2         26.2638    15.1626    38.5619 CH2           1 RES     
    2389 OE          26.3528    14.5594    39.8933 OE            1 RES     
    2390 C           24.8842    14.4196    40.1650 C             1 RES     
    2391 O           23.9959    14.7629    39.3866 O             1 RES     
    2392 CH2         24.8497    14.0293    41.5145 CH2           1 RES     
    2393 CH2         23.3393    14.0244    41.8150 CH2           1 RES     
    2394 CH2         23.1153    13.7839    43.3195 CH2           1 RES     
    2395 CH2         21.6049    13.7791    43.6201 CH2           1 RES     
    2396 CH2         21.3809    13.5386    45.1246 CH2           1 RES     
    2397 CH2         19.8705    13.5337    45.4252 CH2           1 RES     
    2398 CH2         19.6466    13.2933    46.9297 CH2           1 RES     
    2399 CH2         18.1362    13.2884    47.2302 CH2           1 RES     
    2400 CH2         17.9122    13.0480    48.7348 CH2           1 RES     
    2401 CH2         16.4018    13.0431    49.0353 CH2           1 RES     
    2402 CH2         16.1778    12.8027    50.5398 CH2           1 RES     
    2403 CH2         14.6674    12.7978    50.8404 CH2           1 RES     
    2404 CH2         14.4434    12.5574    52.3449 CH2           1 RES     
    2405 CH2         12.9330    12.5525    52.6454 CH2           1 RES     
    2406 CH2         12.7090    12.3121    54.1500 CH2           1 RES     
    2407 CH2         11.1987    12.3072    54.4505 CH2           1 RES     
    2408 CH3         10.9849    12.0777    55.8866 CH3           1 RES     
    2409 CH3         41.5215    21.6783    31.1886 CH3           1 RES     
    2410 CH3         43.7200    21.0546    31.7462 CH3           1 RES     
    2411 CH3         43.3194    22.4456    30.1069 CH3           1 RES     
    2412 NL          42.9077    22.0152    31.2884 NL            1 RES     
    2413 CH2         43.0224    23.1590    32.0739 CH2           1 RES     
    2414 CH2         42.5384    22.6248    33.4348 CH2           1 RES     
    2415 OA          42.5836    23.7166    34.4404 OA            1 RES     
    2416 P           44.0267    23.6930    35.1311 P             1 RES     
    2417 OM          44.1713    22.2718    35.8518 OM            1 RES     
    2418 OM          45.0979    23.9632    33.9738 OM            1 RES     
    2419 OA          44.1147    24.8582    36.2241 OA            1 RES     
    2420 CH2         45.4637    24.8061    36.8427 CH2           1 RES     
    2421 CH1         45.4559    25.2393    38.1300 CH1           1 RES     
    2422 OE          45.8138    23.8469    38.4367 OE            1 RES     
    2423 C           45.5168    23.1618    39.7377 C             1 RES     
    2424 O           45.3382    21.9513    39.8628 O             1 RES     
    2425 CH2         45.3105    24.2365    40.6193 CH2           1 RES     
    2426 CH2         44.8730    23.5208    41.9107 CH2           1 RES     
    2427 CH2         44.4304    24.5650    42.9525 CH2           1 RES     
    2428 CH2         43.9929    23.8493    44.2440 CH2           1 RES     
    2429 CH2         43.5503    24.8936    45.2857 CH2           1 RES     
    2430 CH2         43.1128    24.1778    46.5772 CH2           1 RES     
    2431 CH2         42.6702    25.2221    47.6190 CH2           1 RES     
    2432 CH2         42.2327    24.5064    48.9105 CH2           1 RES     
    2433 CH2         41.7902    25.5506    49.9522 CH2           1 RES     
    2434 CH2         41.3526    24.8349    51.2437 CH2           1 RES     
    2435 CH2         40.9101    25.8792    52.2855 CH2           1 RES     
    2436 CH2         40.4725    25.1635    53.5769 CH2           1 RES     
    2437 CH2         40.0300    26.2077    54.6187 CH2           1 RES     
    2438 CH2         39.5924    25.4920    55.9102 CH2           1 RES     
    2439 CH2         39.1499    26.5363    56.9519 CH2           1 RES     
    2440 CH2         38.7123    25.8206    58.2434 CH2           1 RES     
    2441 CH3         38.2899    26.8174    59.2378 CH3           1 RES     
    2442 CH2         44.0013    25.5025    38.5619 CH2           1 RES     
    2443 OE          43.8941    24.9023    39.8933 OE            1 RES     
    2444 C           42.4572    25.2362    40.1650 C             1 RES     
    2445 O           41.7239    25.8439    39.3866 O             1 RES     
    2446 CH2         42.3004    24.8771    41.5145 CH2           1 RES     
    2447 CH2         40.8667    25.3522    41.8150 CH2           1 RES     
    2448 CH2         40.5779    25.1954    43.3195 CH2           1 RES     
    2449 CH2         39.1442    25.6705    43.6201 CH2           1 RES     
    2450 CH2         38.8555    25.5137    45.1246 CH2           1 RES     
    2451 CH2         37.4218    25.9888    45.4252 CH2           1 RES     
    2452 CH2         37.1330    25.8320    46.9297 CH2           1 RES     
    2453 CH2         35.6993    26.3072    47.2302 CH2           1 RES     
    2454 CH2         35.4105    26.1503    48.7348 CH2           1 RES     
    2455 CH2         33.9768    26.6255    49.0353 CH2           1 RES     
    2456 CH2         33.6881    26.4687    50.5398 CH2           1 RES     
    2457 CH2         32.2544    26.9438    50.8404 CH2           1 RES     
    2458 CH2         31.9656    26.7870    52.3449 CH2           1 RES     
    2459 CH2         30.5319    27.2621    52.6454 CH2           1 RES     
    2460 CH2         30.2431    27.1053    54.1500 CH2           1 RES     
    2461 CH2         28.8094    27.5805    54.4505 CH2           1 RES     
    2462 CH3         28.5338    27.4308    55.8866 CH3           1 RES     
    2463 CH3         30.5920    32.6078    31.1886 CH3           1 RES     
    2464 CH3         32.8523    32.9441    31.7462 CH3           1 RES     
    2465 CH3         31.9148    34.0471    30.1069 CH3           1 RES     
    2466 NL          31.7167    33.4853    31.2884 NL            1 RES     
    2467 CH2         31.3505    34.5751    32.0739 CH2           1 RES     
    2468 CH2         31.1292    33.8890    33.4348 CH2           1 RES     
    2469 OA          30.7211    34.9026    34.4404 OA            1 RES     
    2470 P           32.0460    35.4750    35.1311 P             1 RES     
    2471 OM          32.7627    34.2393    35.8518 OM            1 RES     
    2472 OM          32.9112    36.1621    33.9738 OM            1 RES     
    2473 OA          31.6467    36.5732    36.2241 OA            1 RES     
    2474 CH2         32.8976    37.0809    36.8427 CH2           1 RES     
    2475 CH1         32.7122    37.4724    38.1300 CH1           1 RES     
    2476 OE          33.6114    36.3507    38.4367 OE            1 RES     
    2477 C           33.6227    35.6041    39.7377 C             1 RES     
    2478 O           33.9581    34.4274    39.8628 O             1 RES     
    2479 CH2         32.9924    36.4987    40.6193 CH2           1 RES     
    2480 CH2         32.8882    35.6663    41.9107 CH2           1 RES     
    2481 CH2         32.0551    36.4359    42.9525 CH2           1 RES     
    2482 CH2         31.9509    35.6035    44.2440 CH2           1 RES     
    2483 CH2         31.1178    36.3731    45.2857 CH2           1 RES     
    2484 CH2         31.0136    35.5408    46.5772 CH2           1 RES     
    2485 CH2         30.1805    36.3104    47.6190 CH2           1 RES     
    2486 CH2         30.0763    35.4780    48.9105 CH2           1 RES     
    2487 CH2         29.2432    36.2476    49.9522 CH2           1 RES     
    2488 CH2         29.1389    35.4152    51.2437 CH2           1 RES     
    2489 CH2         28.3058    36.1848    52.2855 CH2           1 RES     
    2490 CH2         28.2016    35.3525    53.5769 CH2           1 RES     
    2491 CH2         27.3685    36.1221    54.6187 CH2           1 RES     
    2492 CH2         27.2643    35.2897    55.9102 CH2           1 RES     
    2493 CH2         26.4312    36.0593    56.9519 CH2           1 RES     
    2494 CH2         26.3270    35.2269    58.2434 CH2           1 RES     
    2495 CH3         25.5318    35.9615    59.2378 CH3           1 RES     
    2496 CH2         31.2782    37.1137    38.5619 CH2           1 RES     
    2497 OE          31.4274    36.5226    39.8933 OE            1 RES     
    2498 C           29.9805    36.2355    40.1650 C             1 RES     
    2499 O           29.0621    36.4876    39.3866 O             1 RES     
    2500 CH2         29.9854    35.8437    41.5145 CH2           1 RES     
    2501 CH2         28.4832    35.6867    41.8150 CH2           1 RES     
    2502 CH2         28.2846    35.4249    43.3195 CH2           1 RES     
    2503 CH2         26.7824    35.2679    43.6201 CH2           1 RES     
    2504 CH2         26.5837    35.0062    45.1246 CH2           1 RES     
    2505 CH2         25.0815    34.8492    45.4252 CH2           1 RES     
    2506 CH2         24.8829    34.5874    46.9297 CH2           1 RES     
    2507 CH2         23.3807    34.4304    47.2302 CH2           1 RES     
    2508 CH2         23.1820    34.1686    48.7348 CH2           1 RES     
    2509 CH2         21.6798    34.0116    49.0353 CH2           1 RES     
    2510 CH2         21.4812    33.7499    50.5398 CH2           1 RES     
    2511 CH2         19.9790    33.5929    50.8404 CH2           1 RES     
    2512 CH2         19.7804    33.3311    52.3449 CH2           1 RES     
    2513 CH2         18.2781    33.1741    52.6454 CH2           1 RES     
    2514 CH2         18.0795    32.9123    54.1500 CH2           1 RES     
    2515 CH2         16.5773    32.7553    54.4505 CH2           1 RES     
    2516 CH3         16.3877    32.5054    55.8866 CH3           1 RES     
    2517 CH3         19.6625    10.7488    31.1886 CH3           1 RES     
    2518 CH3         21.8334    10.0352    31.7462 CH3           1 RES     
    2519 CH3         21.4903    11.4416    30.1069 CH3           1 RES     
    2520 NL          21.0613    11.0284    31.2884 NL            1 RES     
    2521 CH2         21.2229    12.1666    32.0739 CH2           1 RES     
    2522 CH2         20.7173    11.6527    33.4348 CH2           1 RES     
    2523 OA          20.8074    12.7417    34.4404 OA            1 RES     
    2524 P           22.2482    12.6589    35.1311 P             1 RES     
    2525 OM          22.3344    11.2329    35.8518 OM            1 RES     
    2526 OM          23.3297    12.8848    33.9738 OM            1 RES     
    2527 OA          22.3841    13.8195    36.2241 OA            1 RES     
    2528 CH2         23.7298    13.7120    36.8427 CH2           1 RES     
    2529 CH1         23.7398    14.1451    38.1300 CH1           1 RES     
    2530 OE          24.0401    12.7392    38.4367 OE            1 RES     
    2531 C           23.7153    12.0669    39.7377 C             1 RES     
    2532 O           23.4871    10.8647    39.8628 O             1 RES     
    2533 CH2         23.5533    13.1491    40.6193 CH2           1 RES     
    2534 CH2         23.0868    12.4520    41.9107 CH2           1 RES     
    2535 CH2         22.6875    13.5135    42.9525 CH2           1 RES     
    2536 CH2         22.2209    12.8164    44.2440 CH2           1 RES     
    2537 CH2         21.8216    13.8780    45.2857 CH2           1 RES     
    2538 CH2         21.3551    13.1808    46.5772 CH2           1 RES     
    2539 CH2         20.9558    14.2424    47.6190 CH2           1 RES     
    2540 CH2         20.4892    13.5452    48.9105 CH2           1 RES     
    2541 CH2         20.0899    14.6068    49.9522 CH2           1 RES     
    2542 CH2         19.6234    13.9097    51.2437 CH2           1 RES     
    2543 CH2         19.2241    14.9712    52.2855 CH2           1 RES     
    2544 CH2         18.7575    14.2741    53.5769 CH2           1 RES     
    2545 CH2         18.3582    15.3357    54.6187 CH2           1 RES     
    2546 CH2         17.8917    14.6385    55.9102 CH2           1 RES     
    2547 CH2         17.4924    15.7001    56.9519 CH2           1 RES     
    2548 CH2         17.0258    15.0029    58.2434 CH2           1 RES     
    2549 CH3         16.6447    16.0162    59.2378 CH3           1 RES     
    2550 CH2         22.2973    14.4679    38.5619 CH2           1 RES     
    2551 OE          22.1654    13.8726    39.8933 OE            1 RES     
    2552 C           20.7435    14.2652    40.1650 C             1 RES     
    2553 O           20.0358    14.9025    39.3866 O             1 RES     
    2554 CH2         20.5721    13.9128    41.5145 CH2           1 RES     
    2555 CH2         19.1591    14.4465    41.8150 CH2           1 RES     
    2556 CH2         18.8642    14.3016    43.3195 CH2           1 RES     
    2557 CH2         17.4512    14.8353    43.6201 CH2           1 RES     
    2558 CH2         17.1562    14.6904    45.1246 CH2           1 RES     
    2559 CH2         15.7432    15.2241    45.4252 CH2           1 RES     
    2560 CH2         15.4483    15.0793    46.9297 CH2           1 RES     
    2561 CH2         14.0353    15.6129    47.2302 CH2           1 RES     
    2562 CH2         13.7403    15.4681    48.7348 CH2           1 RES     
    2563 CH2         12.3274    16.0017    49.0353 CH2           1 RES     
    2564 CH2         12.0324    15.8569    50.5398 CH2           1 RES     
    2565 CH2         10.6194    16.3905    50.8404 CH2           1 RES     
    2566 CH2         10.3245    16.2457    52.3449 CH2           1 RES     
    2567 CH2          8.9115    16.7794    52.6454 CH2           1 RES     
    2568 CH2          8.6165    16.6345    54.1500 CH2           1 RES     
    2569 CH2          7.2035    17.1682    54.4505 CH2           1 RES     
    2570 CH3          6.9220    17.0299    55.8866 CH3           1 RES     
    2571 CH3         30.5920    16.2135    31.1886 CH3           1 RES     
    2572 CH3         32.7722    15.5289    31.7462 CH3           1 RES     
    2573 CH3         32.4105    16.9306    30.1069 CH3           1 RES     
    2574 NL          31.9870    16.5117    31.2884 NL            1 RES     
    2575 CH2         32.1335    17.6520    32.0739 CH2           1 RES     
    2576 CH2         31.6348    17.1314    33.4348 CH2           1 RES     
    2577 OA          31.7104    18.2215    34.4404 OA            1 RES     
    2578 P           33.1522    18.1578    35.1311 P             1 RES     
    2579 OM          33.2573    16.7331    35.8518 OM            1 RES     
    2580 OM          34.2306    18.3981    33.9738 OM            1 RES     
    2581 OA          33.2726    19.3201    36.2241 OA            1 RES     
    2582 CH2         34.6196    19.2305    36.8427 CH2           1 RES     
    2583 CH1         34.6239    19.6637    38.1300 CH1           1 RES     
    2584 OE          34.9429    18.2619    38.4367 OE            1 RES     
    2585 C           34.6270    17.5854    39.7377 C             1 RES     
    2586 O           34.4147    16.3803    39.8628 O             1 RES     
    2587 CH2         34.4507    18.6654    40.6193 CH2           1 RES     
    2588 CH2         33.9934    17.9621    41.9107 CH2           1 RES     
    2589 CH2         33.5800    19.0183    42.9525 CH2           1 RES     
    2590 CH2         33.1228    18.3150    44.2440 CH2           1 RES     
    2591 CH2         32.7094    19.3711    45.2857 CH2           1 RES     
    2592 CH2         32.2521    18.6679    46.5772 CH2           1 RES     
    2593 CH2         31.8388    19.7240    47.6190 CH2           1 RES     
    2594 CH2         31.3815    19.0208    48.9105 CH2           1 RES     
    2595 CH2         30.9682    20.0769    49.9522 CH2           1 RES     
    2596 CH2         30.5109    19.3736    51.2437 CH2           1 RES     
    2597 CH2         30.0976    20.4298    52.2855 CH2           1 RES     
    2598 CH2         29.6403    19.7265    53.5769 CH2           1 RES     
    2599 CH2         29.2269    20.7827    54.6187 CH2           1 RES     
    2600 CH2         28.7697    20.0794    55.9102 CH2           1 RES     
    2601 CH2         28.3563    21.1356    56.9519 CH2           1 RES     
    2602 CH2         27.8991    20.4323    58.2434 CH2           1 RES     
    2603 CH3         27.5045    21.4405    59.2378 CH3           1 RES     
    2604 CH2         33.1772    19.9673    38.5619 CH2           1 RES     
    2605 OE          33.0532    19.3703    39.8933 OE            1 RES     
    2606 C           31.6262    19.7441    40.1650 C             1 RES     
    2607 O           30.9101    20.3719    39.3866 O             1 RES     
    2608 CH2         31.4595    19.3894    41.5145 CH2           1 RES     
    2609 CH2         30.0396    19.9042    41.8150 CH2           1 RES     
    2610 CH2         29.7466    19.7555    43.3195 CH2           1 RES     
    2611 CH2         28.3266    20.2703    43.6201 CH2           1 RES     
    2612 CH2         28.0336    20.1216    45.1246 CH2           1 RES     
    2613 CH2         26.6137    20.6364    45.4252 CH2           1 RES     
    2614 CH2         26.3207    20.4877    46.9297 CH2           1 RES     
    2615 CH2         24.9007    21.0025    47.2302 CH2           1 RES     
    2616 CH2         24.6077    20.8538    48.7348 CH2           1 RES     
    2617 CH2         23.1878    21.3686    49.0353 CH2           1 RES     
    2618 CH2         22.8947    21.2199    50.5398 CH2           1 RES     
    2619 CH2         21.4748    21.7347    50.8404 CH2           1 RES     
    2620 CH2         21.1818    21.5860    52.3449 CH2           1 RES     
    2621 CH2         19.7619    22.1008    52.6454 CH2           1 RES     
    2622 CH2         19.4688    21.9520    54.1500 CH2           1 RES     
    2623 CH2         18.0489    22.4669    54.4505 CH2           1 RES     
    2624 CH3         17.7692    22.3249    55.8866 CH3           1 RES     
    2625 CH3         46.9863    21.6783    31.1886 CH3           1 RES     
    2626 CH3         48.8514    22.9987    31.7462 CH3           1 RES     
    2627 CH3         47.5169    23.5597    30.1069 CH3           1 RES     
    2628 NL          47.5938    22.9690    31.2884 NL            1 RES     
    2629 CH2         46.7751    23.7761    32.0739 CH2           1 RES     
    2630 CH2         46.8873    23.0640    33.4348 CH2           1 RES     
    2631 OA          46.0656    23.7842    34.4404 OA            1 RES     
    2632 P           46.9894    24.8931    35.1311 P             1 RES     
    2633 OM          48.1868    24.1140    35.8518 OM            1 RES     
    2634 OM          47.4512    25.8967    33.9738 OM            1 RES     
    2635 OA          46.1373    25.6927    36.2241 OA            1 RES     
    2636 CH2         47.0243    26.7104    36.8427 CH2           1 RES     
    2637 CH1         46.6822    26.9762    38.1300 CH1           1 RES     
    2638 OE          47.9909    26.3811    38.4367 OE            1 RES     
    2639 C           48.3380    25.7201    39.7377 C             1 RES     
    2640 O           49.1685    24.8214    39.8628 O             1 RES     
    2641 CH2         47.3718    26.2337    40.6193 CH2           1 RES     
    2642 CH2         47.6546    25.4440    41.9107 CH2           1 RES     
    2643 CH2         46.5638    25.7546    42.9525 CH2           1 RES     
    2644 CH2         46.8465    24.9648    44.2440 CH2           1 RES     
    2645 CH2         45.7557    25.2755    45.2857 CH2           1 RES     
    2646 CH2         46.0385    24.4857    46.5772 CH2           1 RES     
    2647 CH2         44.9477    24.7963    47.6190 CH2           1 RES     
    2648 CH2         45.2304    24.0066    48.9105 CH2           1 RES     
    2649 CH2         44.1396    24.3172    49.9522 CH2           1 RES     
    2650 CH2         44.4224    23.5274    51.2437 CH2           1 RES     
    2651 CH2         43.3316    23.8380    52.2855 CH2           1 RES     
    2652 CH2         43.6144    23.0483    53.5769 CH2           1 RES     
    2653 CH2         42.5236    23.3589    54.6187 CH2           1 RES     
    2654 CH2         42.8063    22.5691    55.9102 CH2           1 RES     
    2655 CH2         41.7155    22.8798    56.9519 CH2           1 RES     
    2656 CH2         41.9983    22.0900    58.2434 CH2           1 RES     
    2657 CH3         40.9571    22.3865    59.2378 CH3           1 RES     
    2658 CH2         45.5645    26.0087    38.5619 CH2           1 RES     
    2659 OE          45.9646    25.5486    39.8933 OE            1 RES     
    2660 C           44.8030    24.6392    40.1650 C             1 RES     
    2661 O           43.8697    24.4496    39.3866 O             1 RES     
    2662 CH2         44.9843    24.2918    41.5145 CH2           1 RES     
    2663 CH2         43.7147    23.4736    41.8150 CH2           1 RES     
    2664 CH2         43.6557    23.1504    43.3195 CH2           1 RES     
    2665 CH2         42.3861    22.3321    43.6201 CH2           1 RES     
    2666 CH2         42.3270    22.0089    45.1246 CH2           1 RES     
    2667 CH2         41.0575    21.1907    45.4252 CH2           1 RES     
    2668 CH2         40.9984    20.8674    46.9297 CH2           1 RES     
    2669 CH2         39.7288    20.0492    47.2302 CH2           1 RES     
    2670 CH2         39.6698    19.7259    48.7348 CH2           1 RES     
    2671 CH2         38.4002    18.9077    49.0353 CH2           1 RES     
    2672 CH2         38.3411    18.5845    50.5398 CH2           1 RES     
    2673 CH2         37.0716    17.7662    50.8404 CH2           1 RES     
    2674 CH2         37.0125    17.4430    52.3449 CH2           1 RES     
    2675 CH2         35.7429    16.6248    52.6454 CH2           1 RES     
    2676 CH2         35.6839    16.3015    54.1500 CH2           1 RES     
    2677 CH2         34.4143    15.4833    54.4505 CH2           1 RES     
    2678 CH3         34.3579    15.1747    55.8866 CH3           1 RES     
    2679 CH3         52.4511    38.0726    31.1886 CH3           1 RES     
    2680 CH3         54.7331    38.1922    31.7462 CH3           1 RES     
    2681 CH3         53.9048    39.3794    30.1069 CH3           1 RES     
    2682 NL          53.6542    38.8391    31.2884 NL            1 RES     
    2683 CH2         53.3934    39.9587    32.0739 CH2           1 RES     
    2684 CH2         53.1078    39.2968    33.4348 CH2           1 RES     
    2685 OA          52.7981    40.3447    34.4404 OA            1 RES     
    2686 P           54.1714    40.7884    35.1311 P             1 RES     
    2687 OM          54.7672    39.4900    35.8518 OM            1 RES     
    2688 OM          55.0980    41.3900    33.9738 OM            1 RES     
    2689 OA          53.8784    41.9196    36.2241 OA            1 RES     
    2690 CH2         55.1719    42.3059    36.8427 CH2           1 RES     
    2691 CH1         55.0247    42.7133    38.1300 CH1           1 RES     
    2692 OE          55.8130    41.5111    38.4367 OE            1 RES     
    2693 C           55.7532    40.7668    39.7377 C             1 RES     
    2694 O           55.9750    39.5635    39.8628 O             1 RES     
    2695 CH2         55.2109    41.7173    40.6193 CH2           1 RES     
    2696 CH2         55.0280    40.8986    41.9107 CH2           1 RES     
    2697 CH2         54.2719    41.7440    42.9525 CH2           1 RES     
    2698 CH2         54.0889    40.9254    44.2440 CH2           1 RES     
    2699 CH2         53.3329    41.7708    45.2857 CH2           1 RES     
    2700 CH2         53.1499    40.9521    46.5772 CH2           1 RES     
    2701 CH2         52.3938    41.7975    47.6190 CH2           1 RES     
    2702 CH2         52.2109    40.9788    48.9105 CH2           1 RES     
    2703 CH2         51.4548    41.8242    49.9522 CH2           1 RES     
    2704 CH2         51.2718    41.0056    51.2437 CH2           1 RES     
    2705 CH2         50.5158    41.8510    52.2855 CH2           1 RES     
    2706 CH2         50.3328    41.0323    53.5769 CH2           1 RES     
    2707 CH2         49.5767    41.8777    54.6187 CH2           1 RES     
    2708 CH2         49.3938    41.0590    55.9102 CH2           1 RES     
    2709 CH2         48.6377    41.9044    56.9519 CH2           1 RES     
    2710 CH2         48.4547    41.0857    58.2434 CH2           1 RES     
    2711 CH3         47.7330    41.8927    59.2378 CH3           1 RES     
    2712 CH2         53.5631    42.4927    38.5619 CH2           1 RES     
    2713 OE          53.6553    41.8900    39.8933 OE            1 RES     
    2714 C           52.1876    41.7420    40.1650 C             1 RES     
    2715 O           51.2974    42.0803    39.3866 O             1 RES     
    2716 CH2         52.1552    41.3515    41.5145 CH2           1 RES     
    2717 CH2         50.6449    41.3382    41.8150 CH2           1 RES     
    2718 CH2         50.4223    41.0965    43.3195 CH2           1 RES     
    2719 CH2         48.9119    41.0832    43.6201 CH2           1 RES     
    2720 CH2         48.6893    40.8415    45.1246 CH2           1 RES     
    2721 CH2         47.1789    40.8282    45.4252 CH2           1 RES     
    2722 CH2         46.9563    40.5866    46.9297 CH2           1 RES     
    2723 CH2         45.4460    40.5733    47.2302 CH2           1 RES     
    2724 CH2         45.2233    40.3316    48.7348 CH2           1 RES     
    2725 CH2         43.7130    40.3183    49.0353 CH2           1 RES     
    2726 CH2         43.4903    40.0766    50.5398 CH2           1 RES     
    2727 CH2         41.9800    40.0633    50.8404 CH2           1 RES     
    2728 CH2         41.7574    39.8216    52.3449 CH2           1 RES     
    2729 CH2         40.2470    39.8083    52.6454 CH2           1 RES     
    2730 CH2         40.0244    39.5667    54.1500 CH2           1 RES     
    2731 CH2         38.5140    39.5534    54.4505 CH2           1 RES     
    2732 CH3         38.3015    39.3227    55.8866 CH3           1 RES     
    2733 CH3         14.1977    43.5374    31.1886 CH3           1 RES     
    2734 CH3         16.4694    43.7850    31.7462 CH3           1 RES     
    2735 CH3         15.5757    44.9238    30.1069 CH3           1 RES     
    2736 NL          15.3558    44.3702    31.2884 NL            1 RES     
    2737 CH2         15.0325    45.4734    32.0739 CH2           1 RES     
    2738 CH2         14.7846    44.7965    33.4348 CH2           1 RES     
    2739 OA          14.4165    45.8254    34.4404 OA            1 RES     
    2740 P           15.7627    46.3455    35.1311 P             1 RES     
    2741 OM          16.4306    45.0827    35.8518 OM            1 RES     
    2742 OM          16.6541    46.9982    33.9738 OM            1 RES     
    2743 OA          15.4066    47.4585    36.2241 OA            1 RES     
    2744 CH2         16.6764    47.9169    36.8427 CH2           1 RES     
    2745 CH1         16.5065    48.3154    38.1300 CH1           1 RES     
    2746 OE          17.3611    47.1593    38.4367 OE            1 RES     
    2747 C           17.3432    46.4129    39.7377 C             1 RES     
    2748 O           17.6323    45.2239    39.8628 O             1 RES     
    2749 CH2         16.7484    47.3314    40.6193 CH2           1 RES     
    2750 CH2         16.6117    46.5037    41.9107 CH2           1 RES     
    2751 CH2         15.8094    47.3053    42.9525 CH2           1 RES     
    2752 CH2         15.6727    46.4777    44.2440 CH2           1 RES     
    2753 CH2         14.8703    47.2792    45.2857 CH2           1 RES     
    2754 CH2         14.7336    46.4516    46.5772 CH2           1 RES     
    2755 CH2         13.9313    47.2532    47.6190 CH2           1 RES     
    2756 CH2         13.7946    46.4255    48.9105 CH2           1 RES     
    2757 CH2         12.9922    47.2271    49.9522 CH2           1 RES     
    2758 CH2         12.8555    46.3994    51.2437 CH2           1 RES     
    2759 CH2         12.0531    47.2010    52.2855 CH2           1 RES     
    2760 CH2         11.9165    46.3734    53.5769 CH2           1 RES     
    2761 CH2         11.1141    47.1749    54.6187 CH2           1 RES     
    2762 CH2         10.9774    46.3473    55.9102 CH2           1 RES     
    2763 CH2         10.1750    47.1489    56.9519 CH2           1 RES     
    2764 CH2         10.0384    46.3212    58.2434 CH2           1 RES     
    2765 CH3          9.2725    47.0864    59.2378 CH3           1 RES     
    2766 CH2         15.0596    48.0130    38.5619 CH2           1 RES     
    2767 OE          15.1856    47.4164    39.8933 OE            1 RES     
    2768 C           13.7285    47.1862    40.1650 C             1 RES     
    2769 O           12.8206    47.4739    39.3866 O             1 RES     
    2770 CH2         13.7181    46.7945    41.5145 CH2           1 RES     
    2771 CH2         12.2109    46.6963    41.8150 CH2           1 RES     
    2772 CH2         12.0022    46.4425    43.3195 CH2           1 RES     
    2773 CH2         10.4950    46.3444    43.6201 CH2           1 RES     
    2774 CH2         10.2863    46.0906    45.1246 CH2           1 RES     
    2775 CH2          8.7791    45.9924    45.4252 CH2           1 RES     
    2776 CH2          8.5703    45.7386    46.9297 CH2           1 RES     
    2777 CH2          7.0632    45.6405    47.2302 CH2           1 RES     
    2778 CH2          6.8544    45.3867    48.7348 CH2           1 RES     
    2779 CH2          5.3472    45.2886    49.0353 CH2           1 RES     
    2780 CH2          5.1385    45.0348    50.5398 CH2           1 RES     
    2781 CH2          3.6313    44.9366    50.8404 CH2           1 RES     
    2782 CH2          3.4226    44.6828    52.3449 CH2           1 RES     
    2783 CH2          1.9154    44.5847    52.6454 CH2           1 RES     
    2784 CH2          1.7067    44.3309    54.1500 CH2           1 RES     
    2785 CH2          0.1995    44.2327    54.4505 CH2           1 RES     
    2786 CH3          0.0002    43.9905    55.8866 CH3           1 RES     
    2787 CH3         14.1977    16.2135    31.1886 CH3           1 RES     
    2788 CH3         16.3712    15.5080    31.7462 CH3           1 RES     
    2789 CH3         16.0230    16.9130    30.1069 CH3           1 RES     
    2790 NL          15.5955    16.4983    31.2884 NL            1 RES     
    2791 CH2         15.7529    17.6371    32.0739 CH2           1 RES     
    2792 CH2         15.2493    17.1214    33.4348 CH2           1 RES     
    2793 OA          15.3353    18.2106    34.4404 OA            1 RES     
    2794 P           16.7764    18.1331    35.1311 P             1 RES     
    2795 OM          16.8678    16.7075    35.8518 OM            1 RES     
    2796 OM          17.8571    18.3630    33.9738 OM            1 RES     
    2797 OA          16.9080    19.2942    36.2241 OA            1 RES     
    2798 CH2         18.2541    19.1917    36.8427 CH2           1 RES     
    2799 CH1         18.2626    19.6248    38.1300 CH1           1 RES     
    2800 OE          18.5680    18.2200    38.4367 OE            1 RES     
    2801 C           18.2457    17.5465    39.7377 C             1 RES     
    2802 O           18.0219    16.3435    39.8628 O             1 RES     
    2803 CH2         18.0797    18.6281    40.6193 CH2           1 RES     
    2804 CH2         17.6157    17.9293    41.9107 CH2           1 RES     
    2805 CH2         17.2126    18.9894    42.9525 CH2           1 RES     
    2806 CH2         16.7486    18.2905    44.2440 CH2           1 RES     
    2807 CH2         16.3454    19.3506    45.2857 CH2           1 RES     
    2808 CH2         15.8814    18.6518    46.5772 CH2           1 RES     
    2809 CH2         15.4782    19.7119    47.6190 CH2           1 RES     
    2810 CH2         15.0142    19.0130    48.9105 CH2           1 RES     
    2811 CH2         14.6110    20.0731    49.9522 CH2           1 RES     
    2812 CH2         14.1470    19.3743    51.2437 CH2           1 RES     
    2813 CH2         13.7438    20.4344    52.2855 CH2           1 RES     
    2814 CH2         13.2798    19.7355    53.5769 CH2           1 RES     
    2815 CH2         12.8767    20.7956    54.6187 CH2           1 RES     
    2816 CH2         12.4126    20.0968    55.9102 CH2           1 RES     
    2817 CH2         12.0095    21.1569    56.9519 CH2           1 RES     
    2818 CH2         11.5455    20.4580    58.2434 CH2           1 RES     
    2819 CH3         11.1606    21.4699    59.2378 CH3           1 RES     
    2820 CH2         16.8189    19.9423    38.5619 CH2           1 RES     
    2821 OE          16.6892    19.3465    39.8933 OE            1 RES     
    2822 C           15.2658    19.7339    40.1650 C             1 RES     
    2823 O           14.5558    20.3686    39.3866 O             1 RES     
    2824 CH2         15.0957    19.3809    41.5145 CH2           1 RES     
    2825 CH2         13.6808    19.9094    41.8150 CH2           1 RES     
    2826 CH2         13.3864    19.7635    43.3195 CH2           1 RES     
    2827 CH2         11.9714    20.2919    43.6201 CH2           1 RES     
    2828 CH2         11.6770    20.1460    45.1246 CH2           1 RES     
    2829 CH2         10.2621    20.6745    45.4252 CH2           1 RES     
    2830 CH2          9.9677    20.5286    46.9297 CH2           1 RES     
    2831 CH2          8.5527    21.0570    47.2302 CH2           1 RES     
    2832 CH2          8.2583    20.9111    48.7348 CH2           1 RES     
    2833 CH2          6.8434    21.4396    49.0353 CH2           1 RES     
    2834 CH2          6.5490    21.2937    50.5398 CH2           1 RES     
    2835 CH2          5.1340    21.8221    50.8404 CH2           1 RES     
    2836 CH2          4.8396    21.6762    52.3449 CH2           1 RES     
    2837 CH2          3.4247    22.2047    52.6454 CH2           1 RES     
    2838 CH2          3.1302    22.0588    54.1500 CH2           1 RES     
    2839 CH2          1.7153    22.5872    54.4505 CH2           1 RES     
    2840 CH3          1.4343    22.4480    55.8866 CH3           1 RES     
    2841 CH3         46.9863    27.1431    31.1886 CH3           1 RES     
    2842 CH3         49.2058    26.5990    31.7462 CH3           1 RES     
    2843 CH3         48.7553    27.9747    30.1069 CH3           1 RES     
    2844 NL          48.3594    27.5297    31.2884 NL            1 RES     
    2845 CH2         48.4329    28.6769    32.0739 CH2           1 RES     
    2846 CH2         47.9684    28.1256    33.4348 CH2           1 RES     
    2847 OA          47.9743    29.2183    34.4404 OA            1 RES     
    2848 P           49.4172    29.2468    35.1311 P             1 RES     
    2849 OM          49.6130    27.8317    35.8518 OM            1 RES     
    2850 OM          50.4780    29.5553    33.9738 OM            1 RES     
    2851 OA          49.4632    30.4144    36.2241 OA            1 RES     
    2852 CH2         50.8132    30.4109    36.8427 CH2           1 RES     
    2853 CH1         50.7898    30.8435    38.1300 CH1           1 RES     
    2854 OE          51.1976    29.4649    38.4367 OE            1 RES     
    2855 C           50.9255    28.7696    39.7377 C             1 RES     
    2856 O           50.7906    27.5535    39.8628 O             1 RES     
    2857 CH2         50.6806    29.8361    40.6193 CH2           1 RES     
    2858 CH2         50.2692    29.1051    41.9107 CH2           1 RES     
    2859 CH2         49.7893    30.1327    42.9525 CH2           1 RES     
    2860 CH2         49.3778    29.4017    44.2440 CH2           1 RES     
    2861 CH2         48.8979    30.4294    45.2857 CH2           1 RES     
    2862 CH2         48.4865    29.6983    46.5772 CH2           1 RES     
    2863 CH2         48.0066    30.7260    47.6190 CH2           1 RES     
    2864 CH2         47.5951    29.9950    48.9105 CH2           1 RES     
    2865 CH2         47.1152    31.0226    49.9522 CH2           1 RES     
    2866 CH2         46.7037    30.2916    51.2437 CH2           1 RES     
    2867 CH2         46.2238    31.3192    52.2855 CH2           1 RES     
    2868 CH2         45.8124    30.5882    53.5769 CH2           1 RES     
    2869 CH2         45.3325    31.6158    54.6187 CH2           1 RES     
    2870 CH2         44.9210    30.8848    55.9102 CH2           1 RES     
    2871 CH2         44.4411    31.9124    56.9519 CH2           1 RES     
    2872 CH2         44.0296    31.1814    58.2434 CH2           1 RES     
    2873 CH3         43.5716    32.1623    59.2378 CH3           1 RES     
    2874 CH2         49.3267    31.0542    38.5619 CH2           1 RES     
    2875 OE          49.2411    30.4505    39.8933 OE            1 RES     
    2876 C           47.7931    30.7324    40.1650 C             1 RES     
    2877 O           47.0384    31.3132    39.3866 O             1 RES     
    2878 CH2         47.6494    30.3678    41.5145 CH2           1 RES     
    2879 CH2         46.1995    30.7910    41.8150 CH2           1 RES     
    2880 CH2         45.9166    30.6239    43.3195 CH2           1 RES     
    2881 CH2         44.4667    31.0470    43.6201 CH2           1 RES     
    2882 CH2         44.1837    30.8799    45.1246 CH2           1 RES     
    2883 CH2         42.7338    31.3031    45.4252 CH2           1 RES     
    2884 CH2         42.4509    31.1359    46.9297 CH2           1 RES     
    2885 CH2         41.0010    31.5591    47.2302 CH2           1 RES     
    2886 CH2         40.7181    31.3920    48.7348 CH2           1 RES     
    2887 CH2         39.2682    31.8151    49.0353 CH2           1 RES     
    2888 CH2         38.9853    31.6480    50.5398 CH2           1 RES     
    2889 CH2         37.5354    32.0712    50.8404 CH2           1 RES     
    2890 CH2         37.2525    31.9040    52.3449 CH2           1 RES     
    2891 CH2         35.8026    32.3272    52.6454 CH2           1 RES     
    2892 CH2         35.5196    32.1601    54.1500 CH2           1 RES     
    2893 CH2         34.0697    32.5832    54.4505 CH2           1 RES     
    2894 CH3         33.7997    32.4237    55.8866 CH3           1 RES     
    2895 CH3         19.6625     5.2840    31.1886 CH3           1 RES     
    2896 CH3         21.9465     5.3574    31.7462 CH3           1 RES     
    2897 CH3         21.1423     6.5611    30.1069 CH3           1 RES     
    2898 NL          20.8808     6.0260    31.2884 NL            1 RES     
    2899 CH2         20.6427     7.1506    32.0739 CH2           1 RES     
    2900 CH2         20.3438     6.4947    33.4348 CH2           1 RES     
    2901 OA          20.0553     7.5486    34.4404 OA            1 RES     
    2902 P           21.4373     7.9644    35.1311 P             1 RES     
    2903 OM          22.0068     6.6543    35.8518 OM            1 RES     
    2904 OM          22.3760     8.5471    33.9738 OM            1 RES     
    2905 OA          21.1673     9.1013    36.2241 OA            1 RES     
    2906 CH2         22.4684     9.4614    36.8427 CH2           1 RES     
    2907 CH1         22.3295     9.8717    38.1300 CH1           1 RES     
    2908 OE          23.0933     8.6537    38.4367 OE            1 RES     
    2909 C           23.0184     7.9109    39.7377 C             1 RES     
    2910 O           23.2159     6.7033    39.8628 O             1 RES     
    2911 CH2         22.4955     8.8721    40.6193 CH2           1 RES     
    2912 CH2         22.2960     8.0573    41.9107 CH2           1 RES     
    2913 CH2         21.5572     8.9178    42.9525 CH2           1 RES     
    2914 CH2         21.3577     8.1030    44.2440 CH2           1 RES     
    2915 CH2         20.6189     8.9636    45.2857 CH2           1 RES     
    2916 CH2         20.4194     8.1488    46.5772 CH2           1 RES     
    2917 CH2         19.6806     9.0093    47.6190 CH2           1 RES     
    2918 CH2         19.4811     8.1945    48.9105 CH2           1 RES     
    2919 CH2         18.7423     9.0550    49.9522 CH2           1 RES     
    2920 CH2         18.5428     8.2402    51.2437 CH2           1 RES     
    2921 CH2         17.8040     9.1007    52.2855 CH2           1 RES     
    2922 CH2         17.6045     8.2859    53.5769 CH2           1 RES     
    2923 CH2         16.8657     9.1464    54.6187 CH2           1 RES     
    2924 CH2         16.6662     8.3317    55.9102 CH2           1 RES     
    2925 CH2         15.9274     9.1922    56.9519 CH2           1 RES     
    2926 CH2         15.7279     8.3774    58.2434 CH2           1 RES     
    2927 CH3         15.0227     9.1988    59.2378 CH3           1 RES     
    2928 CH2         20.8636     9.6807    38.5619 CH2           1 RES     
    2929 OE          20.9437     9.0763    39.8933 OE            1 RES     
    2930 C           19.4733     8.9580    40.1650 C             1 RES     
    2931 O           18.5901     9.3142    39.3866 O             1 RES     
    2932 CH2         19.4330     8.5682    41.5145 CH2           1 RES     
    2933 CH2         17.9227     8.5855    41.8150 CH2           1 RES     
    2934 CH2         17.6952     8.3483    43.3195 CH2           1 RES     
    2935 CH2         16.1850     8.3656    43.6201 CH2           1 RES     
    2936 CH2         15.9575     8.1285    45.1246 CH2           1 RES     
    2937 CH2         14.4472     8.1457    45.4252 CH2           1 RES     
    2938 CH2         14.2197     7.9086    46.9297 CH2           1 RES     
    2939 CH2         12.7094     7.9259    47.2302 CH2           1 RES     
    2940 CH2         12.4819     7.6888    48.7348 CH2           1 RES     
    2941 CH2         10.9716     7.7060    49.0353 CH2           1 RES     
    2942 CH2         10.7441     7.4689    50.5398 CH2           1 RES     
    2943 CH2          9.2338     7.4862    50.8404 CH2           1 RES     
    2944 CH2          9.0063     7.2490    52.3449 CH2           1 RES     
    2945 CH2          7.4960     7.2663    52.6454 CH2           1 RES     
    2946 CH2          7.2685     7.0292    54.1500 CH2           1 RES     
    2947 CH2          5.7582     7.0464    54.4505 CH2           1 RES     
    2948 CH3          5.5411     6.8201    55.8866 CH3           1 RES     
    2949 CH3         52.4511    16.2135    31.1886 CH3           1 RES     
    2950 CH3         54.2997    17.5569    31.7462 CH3           1 RES     
    2951 CH3         52.9584    18.1013    30.1069 CH3           1 RES     
    2952 NL          53.0425    17.5117    31.2884 NL            1 RES     
    2953 CH2         52.2139    18.3085    32.0739 CH2           1 RES     
    2954 CH2         52.3350    17.5979    33.4348 CH2           1 RES     
    2955 OA          51.5044    18.3079    34.4404 OA            1 RES     
    2956 P           52.4144    19.4281    35.1311 P             1 RES     
    2957 OM          53.6214    18.6639    35.8518 OM            1 RES     
    2958 OM          52.8638    20.4374    33.9738 OM            1 RES     
    2959 OA          51.5525    20.2172    36.2241 OA            1 RES     
    2960 CH2         52.4269    21.2458    36.8427 CH2           1 RES     
    2961 CH1         52.0815    21.5072    38.1300 CH1           1 RES     
    2962 OE          53.3975    20.9284    38.4367 OE            1 RES     
    2963 C           53.7527    20.2717    39.7377 C             1 RES     
    2964 O           54.5942    19.3834    39.8628 O             1 RES     
    2965 CH2         52.7802    20.7734    40.6193 CH2           1 RES     
    2966 CH2         53.0727    19.9872    41.9107 CH2           1 RES     
    2967 CH2         51.9781    20.2843    42.9525 CH2           1 RES     
    2968 CH2         52.2706    19.4981    44.2440 CH2           1 RES     
    2969 CH2         51.1761    19.7952    45.2857 CH2           1 RES     
    2970 CH2         51.4686    19.0090    46.5772 CH2           1 RES     
    2971 CH2         50.3740    19.3061    47.6190 CH2           1 RES     
    2972 CH2         50.6665    18.5199    48.9105 CH2           1 RES     
    2973 CH2         49.5720    18.8170    49.9522 CH2           1 RES     
    2974 CH2         49.8645    18.0308    51.2437 CH2           1 RES     
    2975 CH2         48.7699    18.3279    52.2855 CH2           1 RES     
    2976 CH2         49.0624    17.5417    53.5769 CH2           1 RES     
    2977 CH2         47.9679    17.8388    54.6187 CH2           1 RES     
    2978 CH2         48.2604    17.0526    55.9102 CH2           1 RES     
    2979 CH2         47.1658    17.3497    56.9519 CH2           1 RES     
    2980 CH2         47.4583    16.5635    58.2434 CH2           1 RES     
    2981 CH3         46.4135    16.8471    59.2378 CH3           1 RES     
    2982 CH2         50.9759    20.5260    38.5619 CH2           1 RES     
    2983 OE          51.3816    20.0709    39.8933 OE            1 RES     
    2984 C           50.2313    19.1472    40.1650 C             1 RES     
    2985 O           49.3005    18.9460    39.3866 O             1 RES     
    2986 CH2         50.4169    18.8021    41.5145 CH2           1 RES     
    2987 CH2         49.1576    17.9682    41.8150 CH2           1 RES     
    2988 CH2         49.1025    17.6443    43.3195 CH2           1 RES     
    2989 CH2         47.8431    16.8104    43.6201 CH2           1 RES     
    2990 CH2         47.7881    16.4865    45.1246 CH2           1 RES     
    2991 CH2         46.5287    15.6526    45.4252 CH2           1 RES     
    2992 CH2         46.4737    15.3287    46.9297 CH2           1 RES     
    2993 CH2         45.2143    14.4948    47.2302 CH2           1 RES     
    2994 CH2         45.1592    14.1708    48.7348 CH2           1 RES     
    2995 CH2         43.8999    13.3370    49.0353 CH2           1 RES     
    2996 CH2         43.8448    13.0130    50.5398 CH2           1 RES     
    2997 CH2         42.5855    12.1791    50.8404 CH2           1 RES     
    2998 CH2         42.5304    11.8552    52.3449 CH2           1 RES     
    2999 CH2         41.2711    11.0213    52.6454 CH2           1 RES     
    3000 CH2         41.2160    10.6974    54.1500 CH2           1 RES     
    3001 CH2         39.9567     9.8635    54.4505 CH2           1 RES     
    3002 CH3         39.9041     9.5543    55.8866 CH3           1 RES     
    3003 CH3         52.4511    32.6078    31.1886 CH3           1 RES     
    3004 CH3         54.7363    32.6161    31.7462 CH3           1 RES     
    3005 CH3         53.9668    33.8422    30.1069 CH3           1 RES     
    3006 NL          53.6901    33.3148    31.2884 NL            1 RES     
    3007 CH2         53.4842    34.4458    32.0739 CH2           1 RES     
    3008 CH2         53.1666    33.7986    33.4348 CH2           1 RES     
    3009 OA          52.9083    34.8603    34.4404 OA            1 RES     
    3010 P           54.3016    35.2366    35.1311 P             1 RES     
    3011 OM          54.8335    33.9107    35.8518 OM            1 RES     
    3012 OM          55.2565    35.7923    33.9738 OM            1 RES     
    3013 OA          54.0641    36.3807    36.2241 OA            1 RES     
    3014 CH2         55.3749    36.7036    36.8427 CH2           1 RES     
    3015 CH1         55.2477    37.1177    38.1300 CH1           1 RES     
    3016 OE          55.9766    35.8784    38.4367 OE            1 RES     
    3017 C           55.8805    35.1380    39.7377 C             1 RES     
    3018 O           56.0435    33.9253    39.8628 O             1 RES     
    3019 CH2         55.3852    36.1138    40.6193 CH2           1 RES     
    3020 CH2         55.1626    35.3050    41.9107 CH2           1 RES     
    3021 CH2         54.4486    36.1862    42.9525 CH2           1 RES     
    3022 CH2         54.2260    35.3774    44.2440 CH2           1 RES     
    3023 CH2         53.5120    36.2586    45.2857 CH2           1 RES     
    3024 CH2         53.2894    35.4499    46.5772 CH2           1 RES     
    3025 CH2         52.5754    36.3311    47.6190 CH2           1 RES     
    3026 CH2         52.3527    35.5223    48.9105 CH2           1 RES     
    3027 CH2         51.6387    36.4035    49.9522 CH2           1 RES     
    3028 CH2         51.4161    35.5948    51.2437 CH2           1 RES     
    3029 CH2         50.7021    36.4760    52.2855 CH2           1 RES     
    3030 CH2         50.4795    35.6672    53.5769 CH2           1 RES     
    3031 CH2         49.7655    36.5484    54.6187 CH2           1 RES     
    3032 CH2         49.5429    35.7397    55.9102 CH2           1 RES     
    3033 CH2         48.8289    36.6209    56.9519 CH2           1 RES     
    3034 CH2         48.6063    35.8121    58.2434 CH2           1 RES     
    3035 CH3         47.9247    36.6533    59.2378 CH3           1 RES     
    3036 CH2         53.7771    36.9685    38.5619 CH2           1 RES     
    3037 OE          53.8399    36.3621    39.8933 OE            1 RES     
    3038 C           52.3667    36.2857    40.1650 C             1 RES     
    3039 O           51.4940    36.6670    39.3866 O             1 RES     
    3040 CH2         52.3153    35.8973    41.5145 CH2           1 RES     
    3041 CH2         50.8061    35.9575    41.8150 CH2           1 RES     
    3042 CH2         50.5720    35.7270    43.3195 CH2           1 RES     
    3043 CH2         49.0628    35.7873    43.6201 CH2           1 RES     
    3044 CH2         48.8286    35.5568    45.1246 CH2           1 RES     
    3045 CH2         47.3195    35.6171    45.4252 CH2           1 RES     
    3046 CH2         47.0853    35.3865    46.9297 CH2           1 RES     
    3047 CH2         45.5761    35.4468    47.2302 CH2           1 RES     
    3048 CH2         45.3420    35.2163    48.7348 CH2           1 RES     
    3049 CH2         43.8328    35.2766    49.0353 CH2           1 RES     
    3050 CH2         43.5986    35.0460    50.5398 CH2           1 RES     
    3051 CH2         42.0894    35.1063    50.8404 CH2           1 RES     
    3052 CH2         41.8553    34.8758    52.3449 CH2           1 RES     
    3053 CH2         40.3461    34.9361    52.6454 CH2           1 RES     
    3054 CH2         40.1119    34.7055    54.1500 CH2           1 RES     
    3055 CH2         38.6027    34.7658    54.4505 CH2           1 RES     
    3056 CH3         38.3792    34.5458    55.8866 CH3           1 RES     
    3057 CH3         14.1977    32.6078    31.1886 CH3           1 RES     
    3058 CH3         16.3328    33.4224    31.7462 CH3           1 RES     
    3059 CH3         15.1800    34.2979    30.1069 CH3           1 RES     
    3060 NL          15.1073    33.7067    31.2884 NL            1 RES     
    3061 CH2         14.5154    34.6921    32.0739 CH2           1 RES     
    3062 CH2         14.4468    33.9745    33.4348 CH2           1 RES     
    3063 OA          13.8303    34.8767    34.4404 OA            1 RES     
    3064 P           15.0010    35.7206    35.1311 P             1 RES     
    3065 OM          15.9667    34.6680    35.8518 OM            1 RES     
    3066 OM          15.6982    36.5777    33.9738 OM            1 RES     
    3067 OA          14.3748    36.7073    36.2241 OA            1 RES     
    3068 CH2         15.4873    37.4721    36.8427 CH2           1 RES     
    3069 CH1         15.2221    37.8146    38.1300 CH1           1 RES     
    3070 OE          16.3414    36.9125    38.4367 OE            1 RES     
    3071 C           16.5130    36.1858    39.7377 C             1 RES     
    3072 O           17.0936    35.1088    39.8628 O             1 RES     
    3073 CH2         15.7051    36.9239    40.6193 CH2           1 RES     
    3074 CH2         15.7824    36.0886    41.9107 CH2           1 RES     
    3075 CH2         14.8032    36.6610    42.9525 CH2           1 RES     
    3076 CH2         14.8805    35.8257    44.2440 CH2           1 RES     
    3077 CH2         13.9014    36.3981    45.2857 CH2           1 RES     
    3078 CH2         13.9786    35.5628    46.5772 CH2           1 RES     
    3079 CH2         12.9995    36.1352    47.6190 CH2           1 RES     
    3080 CH2         13.0767    35.2999    48.9105 CH2           1 RES     
    3081 CH2         12.0976    35.8723    49.9522 CH2           1 RES     
    3082 CH2         12.1748    35.0370    51.2437 CH2           1 RES     
    3083 CH2         11.1957    35.6094    52.2855 CH2           1 RES     
    3084 CH2         11.2730    34.7741    53.5769 CH2           1 RES     
    3085 CH2         10.2938    35.3465    54.6187 CH2           1 RES     
    3086 CH2         10.3711    34.5112    55.9102 CH2           1 RES     
    3087 CH2          9.3919    35.0836    56.9519 CH2           1 RES     
    3088 CH2          9.4692    34.2483    58.2434 CH2           1 RES     
    3089 CH3          8.5346    34.7947    59.2378 CH3           1 RES     
    3090 CH2         13.8987    37.1559    38.5619 CH2           1 RES     
    3091 OE          14.1716    36.6106    39.8933 OE            1 RES     
    3092 C           12.8202    36.0191    40.1650 C             1 RES     
    3093 O           11.8691    36.0677    39.3866 O             1 RES     
    3094 CH2         12.9094    35.6375    41.5145 CH2           1 RES     
    3095 CH2         11.4761    35.1611    41.8150 CH2           1 RES     
    3096 CH2         11.3384    34.8627    43.3195 CH2           1 RES     
    3097 CH2          9.9051    34.3863    43.6201 CH2           1 RES     
    3098 CH2          9.7674    34.0879    45.1246 CH2           1 RES     
    3099 CH2          8.3341    33.6115    45.4252 CH2           1 RES     
    3100 CH2          8.1964    33.3132    46.9297 CH2           1 RES     
    3101 CH2          6.7632    32.8368    47.2302 CH2           1 RES     
    3102 CH2          6.6255    32.5384    48.7348 CH2           1 RES     
    3103 CH2          5.1922    32.0620    49.0353 CH2           1 RES     
    3104 CH2          5.0545    31.7636    50.5398 CH2           1 RES     
    3105 CH2          3.6212    31.2872    50.8404 CH2           1 RES     
    3106 CH2          3.4835    30.9888    52.3449 CH2           1 RES     
    3107 CH2          2.0502    30.5124    52.6454 CH2           1 RES     
    3108 CH2          1.9125    30.2141    54.1500 CH2           1 RES     
    3109 CH2          0.4793    29.7376    54.4505 CH2           1 RES     
    3110 CH3          0.3478    29.4528    55.8866 CH3           1 RES     
    3111 CH3         36.0568    32.6078    31.1886 CH3           1 RES     
    3112 CH3         38.1780    33.4579    31.7462 CH3           1 RES     
    3113 CH3         37.0107    34.3140    30.1069 CH3           1 RES     
    3114 NL          36.9479    33.7217    31.2884 NL            1 RES     
    3115 CH2         36.3396    34.6972    32.0739 CH2           1 RES     
    3116 CH2         36.2830    33.9785    33.4348 CH2           1 RES     
    3117 OA          35.6515    34.8702    34.4404 OA            1 RES     
    3118 P           36.8080    35.7336    35.1311 P             1 RES     
    3119 OM          37.7912    34.6972    35.8518 OM            1 RES     
    3120 OM          37.4907    36.6022    33.9738 OM            1 RES     
    3121 OA          36.1654    36.7096    36.2241 OA            1 RES     
    3122 CH2         37.2649    37.4929    36.8427 CH2           1 RES     
    3123 CH1         36.9940    37.8310    38.1300 CH1           1 RES     
    3124 OE          38.1283    36.9477    38.4367 OE            1 RES     
    3125 C           38.3120    36.2240    39.7377 C             1 RES     
    3126 O           38.9105    35.1568    39.8628 O             1 RES     
    3127 CH2         37.4919    36.9485    40.6193 CH2           1 RES     
    3128 CH2         37.5831    36.1146    41.9107 CH2           1 RES     
    3129 CH2         36.5945    36.6705    42.9525 CH2           1 RES     
    3130 CH2         36.6857    35.8367    44.2440 CH2           1 RES     
    3131 CH2         35.6972    36.3926    45.2857 CH2           1 RES     
    3132 CH2         35.7883    35.5587    46.5772 CH2           1 RES     
    3133 CH2         34.7998    36.1147    47.6190 CH2           1 RES     
    3134 CH2         34.8910    35.2808    48.9105 CH2           1 RES     
    3135 CH2         33.9024    35.8368    49.9522 CH2           1 RES     
    3136 CH2         33.9936    35.0029    51.2437 CH2           1 RES     
    3137 CH2         33.0051    35.5588    52.2855 CH2           1 RES     
    3138 CH2         33.0963    34.7250    53.5769 CH2           1 RES     
    3139 CH2         32.1077    35.2809    54.6187 CH2           1 RES     
    3140 CH2         32.1989    34.4470    55.9102 CH2           1 RES     
    3141 CH2         31.2103    35.0030    56.9519 CH2           1 RES     
    3142 CH2         31.3015    34.1691    58.2434 CH2           1 RES     
    3143 CH3         30.3579    34.6998    59.2378 CH3           1 RES     
    3144 CH2         35.6819    37.1502    38.5619 CH2           1 RES     
    3145 OE          35.9638    36.6096    39.8933 OE            1 RES     
    3146 C           34.6225    35.9956    40.1650 C             1 RES     
    3147 O           33.6708    36.0283    39.3866 O             1 RES     
    3148 CH2         34.7180    35.6156    41.5145 CH2           1 RES     
    3149 CH2         33.2929    35.1153    41.8150 CH2           1 RES     
    3150 CH2         33.1602    34.8146    43.3195 CH2           1 RES     
    3151 CH2         31.7351    34.3144    43.6201 CH2           1 RES     
    3152 CH2         31.6024    34.0137    45.1246 CH2           1 RES     
    3153 CH2         30.1773    33.5134    45.4252 CH2           1 RES     
    3154 CH2         30.0446    33.2128    46.9297 CH2           1 RES     
    3155 CH2         28.6194    32.7125    47.2302 CH2           1 RES     
    3156 CH2         28.4868    32.4119    48.7348 CH2           1 RES     
    3157 CH2         27.0616    31.9116    49.0353 CH2           1 RES     
    3158 CH2         26.9289    31.6110    50.5398 CH2           1 RES     
    3159 CH2         25.5038    31.1107    50.8404 CH2           1 RES     
    3160 CH2         25.3711    30.8101    52.3449 CH2           1 RES     
    3161 CH2         23.9460    30.3098    52.6454 CH2           1 RES     
    3162 CH2         23.8133    30.0092    54.1500 CH2           1 RES     
    3163 CH2         22.3882    29.5089    54.4505 CH2           1 RES     
    3164 CH3         22.2615    29.2219    55.8866 CH3           1 RES     
    3165 CH3         52.4511    27.1431    31.1886 CH3           1 RES     
    3166 CH3         54.6952    26.7119    31.7462 CH3           1 RES     
    3167 CH3         54.1758    28.0631    30.1069 CH3           1 RES     
    3168 NL          53.8029    27.5987    31.2884 NL            1 RES     
    3169 CH2         53.8182    28.7481    32.0739 CH2           1 RES     
    3170 CH2         53.3822    28.1741    33.4348 CH2           1 RES     
    3171 OA          53.3328    29.2656    34.4404 OA            1 RES     
    3172 P           54.7724    29.3670    35.1311 P             1 RES     
    3173 OM          55.0396    27.9637    35.8518 OM            1 RES     
    3174 OM          55.8163    29.7289    33.9738 OM            1 RES     
    3175 OA          54.7593    30.5355    36.2241 OA            1 RES     
    3176 CH2         56.1077    30.6003    36.8427 CH2           1 RES     
    3177 CH1         56.0625    31.0312    38.1300 CH1           1 RES     
    3178 OE          56.5395    29.6750    38.4367 OE            1 RES     
    3179 C           56.3029    28.9668    39.7377 C             1 RES     
    3180 O           56.2297    27.7454    39.8628 O             1 RES     
    3181 CH2         56.0044    30.0196    40.6193 CH2           1 RES     
    3182 CH2         55.6305    29.2687    41.9107 CH2           1 RES     
    3183 CH2         55.0992    30.2707    42.9525 CH2           1 RES     
    3184 CH2         54.7253    29.5198    44.2440 CH2           1 RES     
    3185 CH2         54.1940    30.5219    45.2857 CH2           1 RES     
    3186 CH2         53.8200    29.7710    46.5772 CH2           1 RES     
    3187 CH2         53.2888    30.7730    47.6190 CH2           1 RES     
    3188 CH2         52.9148    30.0221    48.9105 CH2           1 RES     
    3189 CH2         52.3835    31.0241    49.9522 CH2           1 RES     
    3190 CH2         52.0096    30.2732    51.2437 CH2           1 RES     
    3191 CH2         51.4783    31.2753    52.2855 CH2           1 RES     
    3192 CH2         51.1044    30.5244    53.5769 CH2           1 RES     
    3193 CH2         50.5731    31.5264    54.6187 CH2           1 RES     
    3194 CH2         50.1991    30.7755    55.9102 CH2           1 RES     
    3195 CH2         49.6679    31.7776    56.9519 CH2           1 RES     
    3196 CH2         49.2939    31.0267    58.2434 CH2           1 RES     
    3197 CH3         48.7868    31.9832    59.2378 CH3           1 RES     
    3198 CH2         54.5906    31.1675    38.5619 CH2           1 RES     
    3199 OE          54.5357    30.5603    39.8933 OE            1 RES     
    3200 C           53.0753    30.7686    40.1650 C             1 RES     
    3201 O           52.2921    31.3105    39.3866 O             1 RES     
    3202 CH2         52.9502    30.3972    41.5145 CH2           1 RES     
    3203 CH2         51.4807    30.7465    41.8150 CH2           1 RES     
    3204 CH2         51.2066    30.5653    43.3195 CH2           1 RES     
    3205 CH2         49.7372    30.9146    43.6201 CH2           1 RES     
    3206 CH2         49.4631    30.7333    45.1246 CH2           1 RES     
    3207 CH2         47.9936    31.0826    45.4252 CH2           1 RES     
    3208 CH2         47.7195    30.9014    46.9297 CH2           1 RES     
    3209 CH2         46.2501    31.2507    47.2302 CH2           1 RES     
    3210 CH2         45.9760    31.0694    48.7348 CH2           1 RES     
    3211 CH2         44.5065    31.4187    49.0353 CH2           1 RES     
    3212 CH2         44.2324    31.2375    50.5398 CH2           1 RES     
    3213 CH2         42.7630    31.5868    50.8404 CH2           1 RES     
    3214 CH2         42.4888    31.4056    52.3449 CH2           1 RES     
    3215 CH2         41.0194    31.7548    52.6454 CH2           1 RES     
    3216 CH2         40.7453    31.5736    54.1500 CH2           1 RES     
    3217 CH2         39.2758    31.9229    54.4505 CH2           1 RES     
    3218 CH3         39.0142    31.7499    55.8866 CH3           1 RES     
    3219 CH3         14.1977    27.1431    31.1886 CH3           1 RES     
    3220 CH3         16.2033    28.2384    31.7462 CH3           1 RES     
    3221 CH3         14.9428    28.9502    30.1069 CH3           1 RES     
    3222 NL          14.9506    28.3547    31.2884 NL            1 RES     
    3223 CH2         14.2310    29.2512    32.0739 CH2           1 RES     
    3224 CH2         14.2600    28.5309    33.4348 CH2           1 RES     
    3225 OA          13.5273    29.3415    34.4404 OA            1 RES     
    3226 P           14.5734    30.3358    35.1311 P             1 RES     
    3227 OM          15.6724    29.4232    35.8518 OM            1 RES     
    3228 OM          15.1484    31.2792    33.9738 OM            1 RES     
    3229 OA          13.8197    31.2289    36.2241 OA            1 RES     
    3230 CH2         14.8187    32.1369    36.8427 CH2           1 RES     
    3231 CH1         14.5097    32.4405    38.1300 CH1           1 RES     
    3232 OE          15.7406    31.6978    38.4367 OE            1 RES     
    3233 C           16.0087    31.0009    39.7377 C             1 RES     
    3234 O           16.7295    30.0121    39.8628 O             1 RES     
    3235 CH2         15.1086    31.6231    40.6193 CH2           1 RES     
    3236 CH2         15.2979    30.8059    41.9107 CH2           1 RES     
    3237 CH2         14.2504    31.2409    42.9525 CH2           1 RES     
    3238 CH2         14.4398    30.4237    44.2440 CH2           1 RES     
    3239 CH2         13.3923    30.8586    45.2857 CH2           1 RES     
    3240 CH2         13.5816    30.0414    46.5772 CH2           1 RES     
    3241 CH2         12.5342    30.4764    47.6190 CH2           1 RES     
    3242 CH2         12.7235    29.6591    48.9105 CH2           1 RES     
    3243 CH2         11.6761    30.0941    49.9522 CH2           1 RES     
    3244 CH2         11.8654    29.2769    51.2437 CH2           1 RES     
    3245 CH2         10.8179    29.7118    52.2855 CH2           1 RES     
    3246 CH2         11.0073    28.8946    53.5769 CH2           1 RES     
    3247 CH2          9.9598    29.3296    54.6187 CH2           1 RES     
    3248 CH2         10.1491    28.5124    55.9102 CH2           1 RES     
    3249 CH2          9.1017    28.9473    56.9519 CH2           1 RES     
    3250 CH2          9.2910    28.1301    58.2434 CH2           1 RES     
    3251 CH3          8.2912    28.5453    59.2378 CH3           1 RES     
    3252 CH2         13.2874    31.6091    38.5619 CH2           1 RES     
    3253 OE          13.6314    31.1057    39.8933 OE            1 RES     
    3254 C           12.3723    30.3371    40.1650 C             1 RES     
    3255 O           11.4233    30.2569    39.3866 O             1 RES     
    3256 CH2         12.5121    29.9710    41.5145 CH2           1 RES     
    3257 CH2         11.1563    29.3055    41.8150 CH2           1 RES     
    3258 CH2         11.0601    28.9912    43.3195 CH2           1 RES     
    3259 CH2          9.7043    28.3257    43.6201 CH2           1 RES     
    3260 CH2          9.6081    28.0115    45.1246 CH2           1 RES     
    3261 CH2          8.2523    27.3459    45.4252 CH2           1 RES     
    3262 CH2          8.1562    27.0317    46.9297 CH2           1 RES     
    3263 CH2          6.8003    26.3661    47.2302 CH2           1 RES     
    3264 CH2          6.7042    26.0519    48.7348 CH2           1 RES     
    3265 CH2          5.3483    25.3863    49.0353 CH2           1 RES     
    3266 CH2          5.2522    25.0721    50.5398 CH2           1 RES     
    3267 CH2          3.8964    24.4065    50.8404 CH2           1 RES     
    3268 CH2          3.8002    24.0923    52.3449 CH2           1 RES     
    3269 CH2          2.4444    23.4267    52.6454 CH2           1 RES     
    3270 CH2          2.3482    23.1125    54.1500 CH2           1 RES     
    3271 CH2          0.9924    22.4469    54.4505 CH2           1 RES     
    3272 CH3          0.9006    22.1470    55.8866 CH3           1 RES     
    3273 CH3         30.5920    38.0726    31.1886 CH3           1 RES     
    3274 CH3         32.7124    38.9247    31.7462 CH3           1 RES     
    3275 CH3         31.5443    39.7797    30.1069 CH3           1 RES     
    3276 NL          31.4821    39.1873    31.2884 NL            1 RES     
    3277 CH2         30.8729    40.1622    32.0739 CH2           1 RES     
    3278 CH2         30.8170    39.4435    33.4348 CH2           1 RES     
    3279 OA          30.1846    40.3346    34.4404 OA            1 RES     
    3280 P           31.3403    41.1991    35.1311 P             1 RES     
    3281 OM          32.3244    40.1636    35.8518 OM            1 RES     
    3282 OM          32.0222    42.0683    33.9738 OM            1 RES     
    3283 OA          30.6968    42.1745    36.2241 OA            1 RES     
    3284 CH2         31.7956    42.9588    36.8427 CH2           1 RES     
    3285 CH1         31.5244    43.2966    38.1300 CH1           1 RES     
    3286 OE          32.6595    42.4144    38.4367 OE            1 RES     
    3287 C           32.8439    41.6909    39.7377 C             1 RES     
    3288 O           33.4434    40.6242    39.8628 O             1 RES     
    3289 CH2         32.0231    42.4146    40.6193 CH2           1 RES     
    3290 CH2         32.1150    41.5808    41.9107 CH2           1 RES     
    3291 CH2         31.1260    42.1358    42.9525 CH2           1 RES     
    3292 CH2         31.2179    41.3020    44.2440 CH2           1 RES     
    3293 CH2         30.2289    41.8571    45.2857 CH2           1 RES     
    3294 CH2         30.3208    41.0233    46.5772 CH2           1 RES     
    3295 CH2         29.3318    41.5783    47.6190 CH2           1 RES     
    3296 CH2         29.4237    40.7445    48.9105 CH2           1 RES     
    3297 CH2         28.4347    41.2995    49.9522 CH2           1 RES     
    3298 CH2         28.5266    40.4657    51.2437 CH2           1 RES     
    3299 CH2         27.5376    41.0208    52.2855 CH2           1 RES     
    3300 CH2         27.6295    40.1870    53.5769 CH2           1 RES     
    3301 CH2         26.6405    40.7420    54.6187 CH2           1 RES     
    3302 CH2         26.7324    39.9082    55.9102 CH2           1 RES     
    3303 CH2         25.7433    40.4633    56.9519 CH2           1 RES     
    3304 CH2         25.8353    39.6295    58.2434 CH2           1 RES     
    3305 CH3         24.8912    40.1593    59.2378 CH3           1 RES     
    3306 CH2         30.2129    42.6147    38.5619 CH2           1 RES     
    3307 OE          30.4954    42.0743    39.8933 OE            1 RES     
    3308 C           29.1546    41.4590    40.1650 C             1 RES     
    3309 O           28.2028    41.4909    39.3866 O             1 RES     
    3310 CH2         29.2504    41.0791    41.5145 CH2           1 RES     
    3311 CH2         27.8258    40.5775    41.8150 CH2           1 RES     
    3312 CH2         27.6934    40.2767    43.3195 CH2           1 RES     
    3313 CH2         26.2687    39.7751    43.6201 CH2           1 RES     
    3314 CH2         26.1363    39.4744    45.1246 CH2           1 RES     
    3315 CH2         24.7116    38.9727    45.4252 CH2           1 RES     
    3316 CH2         24.5792    38.6720    46.9297 CH2           1 RES     
    3317 CH2         23.1546    38.1704    47.2302 CH2           1 RES     
    3318 CH2         23.0222    37.8696    48.7348 CH2           1 RES     
    3319 CH2         21.5975    37.3680    49.0353 CH2           1 RES     
    3320 CH2         21.4651    37.0673    50.5398 CH2           1 RES     
    3321 CH2         20.0404    36.5657    50.8404 CH2           1 RES     
    3322 CH2         19.9080    36.2649    52.3449 CH2           1 RES     
    3323 CH2         18.4834    35.7633    52.6454 CH2           1 RES     
    3324 CH2         18.3510    35.4626    54.1500 CH2           1 RES     
    3325 CH2         16.9263    34.9610    54.4505 CH2           1 RES     
    3326 CH3         16.7999    34.6739    55.8866 CH3           1 RES     
    3327 CH3         19.6625    16.2135    31.1886 CH3           1 RES     
    3328 CH3         21.6799    17.2868    31.7462 CH3           1 RES     
    3329 CH3         20.4273    18.0124    30.1069 CH3           1 RES     
    3330 NL          20.4287    17.4168    31.2884 NL            1 RES     
    3331 CH2         19.7189    18.3212    32.0739 CH2           1 RES     
    3332 CH2         19.7400    17.6006    33.4348 CH2           1 RES     
    3333 OA          19.0162    18.4192    34.4404 OA            1 RES     
    3334 P           20.0732    19.4019    35.1311 P             1 RES     
    3335 OM          21.1621    18.4773    35.8518 OM            1 RES     
    3336 OM          20.6585    20.3389    33.9738 OM            1 RES     
    3337 OA          19.3294    20.3032    36.2241 OA            1 RES     
    3338 CH2         20.3382    21.2002    36.8427 CH2           1 RES     
    3339 CH1         20.0326    21.5072    38.1300 CH1           1 RES     
    3340 OE          21.2553    20.7510    38.4367 OE            1 RES     
    3341 C           21.5157    20.0513    39.7377 C             1 RES     
    3342 O           22.2256    19.0546    39.8628 O             1 RES     
    3343 CH2         20.6225    20.6833    40.6193 CH2           1 RES     
    3344 CH2         20.8028    19.8641    41.9107 CH2           1 RES     
    3345 CH2         19.7602    20.3105    42.9525 CH2           1 RES     
    3346 CH2         19.9405    19.4913    44.2440 CH2           1 RES     
    3347 CH2         18.8979    19.9377    45.2857 CH2           1 RES     
    3348 CH2         19.0783    19.1184    46.5772 CH2           1 RES     
    3349 CH2         18.0357    19.5649    47.6190 CH2           1 RES     
    3350 CH2         18.2160    18.7456    48.9105 CH2           1 RES     
    3351 CH2         17.1734    19.1921    49.9522 CH2           1 RES     
    3352 CH2         17.3537    18.3728    51.2437 CH2           1 RES     
    3353 CH2         16.3111    18.8193    52.2855 CH2           1 RES     
    3354 CH2         16.4914    18.0000    53.5769 CH2           1 RES     
    3355 CH2         15.4488    18.4464    54.6187 CH2           1 RES     
    3356 CH2         15.6292    17.6272    55.9102 CH2           1 RES     
    3357 CH2         14.5866    18.0736    56.9519 CH2           1 RES     
    3358 CH2         14.7669    17.2544    58.2434 CH2           1 RES     
    3359 CH3         13.7717    17.6805    59.2378 CH3           1 RES     
    3360 CH2         18.8013    20.6893    38.5619 CH2           1 RES     
    3361 OE          19.1397    20.1821    39.8933 OE            1 RES     
    3362 C           17.8722    19.4274    40.1650 C             1 RES     
    3363 O           16.9224    19.3576    39.3866 O             1 RES     
    3364 CH2         18.0080    19.0598    41.5145 CH2           1 RES     
    3365 CH2         16.6450    18.4092    41.8150 CH2           1 RES     
    3366 CH2         16.5454    18.0960    43.3195 CH2           1 RES     
    3367 CH2         15.1823    17.4454    43.6201 CH2           1 RES     
    3368 CH2         15.0827    17.1323    45.1246 CH2           1 RES     
    3369 CH2         13.7197    16.4816    45.4252 CH2           1 RES     
    3370 CH2         13.6201    16.1685    46.9297 CH2           1 RES     
    3371 CH2         12.2570    15.5178    47.2302 CH2           1 RES     
    3372 CH2         12.1574    15.2047    48.7348 CH2           1 RES     
    3373 CH2         10.7944    14.5540    49.0353 CH2           1 RES     
    3374 CH2         10.6948    14.2409    50.5398 CH2           1 RES     
    3375 CH2          9.3317    13.5902    50.8404 CH2           1 RES     
    3376 CH2          9.2321    13.2771    52.3449 CH2           1 RES     
    3377 CH2          7.8691    12.6264    52.6454 CH2           1 RES     
    3378 CH2          7.7695    12.3133    54.1500 CH2           1 RES     
    3379 CH2          6.4064    11.6626    54.4505 CH2           1 RES     
    3380 CH3          6.3113    11.3637    55.8866 CH3           1 RES     
    3381 CH3         30.5920    43.5374    31.1886 CH3           1 RES     
    3382 CH3         32.4938    44.8044    31.7462 CH3           1 RES     
    3383 CH3         31.1757    45.4029    30.1069 CH3           1 RES     
    3384 NL          31.2358    44.8104    31.2884 NL            1 RES     
    3385 CH2         30.4403    45.6403    32.0739 CH2           1 RES     
    3386 CH2         30.5323    44.9253    33.4348 CH2           1 RES     
    3387 OA          29.7314    45.6686    34.4404 OA            1 RES     
    3388 P           30.6862    46.7508    35.1311 P             1 RES     
    3389 OM          31.8611    45.9380    35.8518 OM            1 RES     
    3390 OM          31.1763    47.7409    33.9738 OM            1 RES     
    3391 OA          29.8572    47.5743    36.2241 OA            1 RES     
    3392 CH2         30.7727    48.5664    36.8427 CH2           1 RES     
    3393 CH1         30.4382    48.8417    38.1300 CH1           1 RES     
    3394 OE          31.7295    48.2098    38.4367 OE            1 RES     
    3395 C           32.0577    47.5392    39.7377 C             1 RES     
    3396 O           32.8624    46.6174    39.8628 O             1 RES     
    3397 CH2         31.1065    48.0801    40.6193 CH2           1 RES     
    3398 CH2         31.3667    47.2826    41.9107 CH2           1 RES     
    3399 CH2         30.2852    47.6240    42.9525 CH2           1 RES     
    3400 CH2         30.5454    46.8266    44.2440 CH2           1 RES     
    3401 CH2         29.4639    47.1680    45.2857 CH2           1 RES     
    3402 CH2         29.7241    46.3705    46.5772 CH2           1 RES     
    3403 CH2         28.6426    46.7119    47.6190 CH2           1 RES     
    3404 CH2         28.9028    45.9145    48.9105 CH2           1 RES     
    3405 CH2         27.8213    46.2559    49.9522 CH2           1 RES     
    3406 CH2         28.0815    45.4584    51.2437 CH2           1 RES     
    3407 CH2         27.0000    45.7999    52.2855 CH2           1 RES     
    3408 CH2         27.2602    45.0024    53.5769 CH2           1 RES     
    3409 CH2         26.1787    45.3438    54.6187 CH2           1 RES     
    3410 CH2         26.4389    44.5463    55.9102 CH2           1 RES     
    3411 CH2         25.3574    44.8878    56.9519 CH2           1 RES     
    3412 CH2         25.6176    44.0903    58.2434 CH2           1 RES     
    3413 CH3         24.5853    44.4162    59.2378 CH3           1 RES     
    3414 CH2         29.2936    47.9064    38.5619 CH2           1 RES     
    3415 OE          29.6804    47.4351    39.8933 OE            1 RES     
    3416 C           28.4935    46.5590    40.1650 C             1 RES     
    3417 O           27.5553    46.3959    39.3866 O             1 RES     
    3418 CH2         28.6649    46.2066    41.5145 CH2           1 RES     
    3419 CH2         27.3726    45.4247    41.8150 CH2           1 RES     
    3420 CH2         27.3044    45.1033    43.3195 CH2           1 RES     
    3421 CH2         26.0122    44.3214    43.6201 CH2           1 RES     
    3422 CH2         25.9440    43.9999    45.1246 CH2           1 RES     
    3423 CH2         24.6517    43.2180    45.4252 CH2           1 RES     
    3424 CH2         24.5835    42.8966    46.9297 CH2           1 RES     
    3425 CH2         23.2913    42.1147    47.2302 CH2           1 RES     
    3426 CH2         23.2231    41.7932    48.7348 CH2           1 RES     
    3427 CH2         21.9308    41.0113    49.0353 CH2           1 RES     
    3428 CH2         21.8626    40.6899    50.5398 CH2           1 RES     
    3429 CH2         20.5704    39.9080    50.8404 CH2           1 RES     
    3430 CH2         20.5021    39.5865    52.3449 CH2           1 RES     
    3431 CH2         19.2099    38.8046    52.6454 CH2           1 RES     
    3432 CH2         19.1417    38.4832    54.1500 CH2           1 RES     
    3433 CH2         17.8494    37.7012    54.4505 CH2           1 RES     
    3434 CH3         17.7843    37.3944    55.8866 CH3           1 RES     
    3435 CH3         30.5920     5.2840    31.1886 CH3           1 RES     
    3436 CH3         32.8595     4.9998    31.7462 CH3           1 RES     
    3437 CH3         32.2532     6.3143    30.1069 CH3           1 RES     
    3438 NL          31.9113     5.8266    31.2884 NL            1 RES     
    3439 CH2         31.8518     6.9746    32.0739 CH2           1 RES     
    3440 CH2         31.4541     6.3734    33.4348 CH2           1 RES     
    3441 OA          31.3337     7.4594    34.4404 OA            1 RES     
    3442 P           32.7637     7.6543    35.1311 P             1 RES     
    3443 OM          33.1216     6.2713    35.8518 OM            1 RES     
    3444 OM          33.7818     8.0833    33.9738 OM            1 RES     
    3445 OA          32.6746     8.8194    36.2241 OA            1 RES     
    3446 CH2         34.0159     8.9719    36.8427 CH2           1 RES     
    3447 CH1         33.9428     9.3989    38.1300 CH1           1 RES     
    3448 OE          34.5070     8.0766    38.4367 OE            1 RES     
    3449 C           34.3170     7.3545    39.7377 C             1 RES     
    3450 O           34.3235     6.1309    39.8628 O             1 RES     
    3451 CH2         33.9507     8.3856    40.6193 CH2           1 RES     
    3452 CH2         33.6264     7.6120    41.9107 CH2           1 RES     
    3453 CH2         33.0310     8.5773    42.9525 CH2           1 RES     
    3454 CH2         32.7067     7.8037    44.2440 CH2           1 RES     
    3455 CH2         32.1114     8.7690    45.2857 CH2           1 RES     
    3456 CH2         31.7871     7.9954    46.5772 CH2           1 RES     
    3457 CH2         31.1917     8.9607    47.6190 CH2           1 RES     
    3458 CH2         30.8674     8.1871    48.9105 CH2           1 RES     
    3459 CH2         30.2721     9.1524    49.9522 CH2           1 RES     
    3460 CH2         29.9478     8.3788    51.2437 CH2           1 RES     
    3461 CH2         29.3524     9.3441    52.2855 CH2           1 RES     
    3462 CH2         29.0281     8.5705    53.5769 CH2           1 RES     
    3463 CH2         28.4328     9.5358    54.6187 CH2           1 RES     
    3464 CH2         28.1085     8.7622    55.9102 CH2           1 RES     
    3465 CH2         27.5131     9.7276    56.9519 CH2           1 RES     
    3466 CH2         27.1888     8.9539    58.2434 CH2           1 RES     
    3467 CH3         26.6205     9.8754    59.2378 CH3           1 RES     
    3468 CH2         32.4651     9.4392    38.5619 CH2           1 RES     
    3469 OE          32.4498     8.8296    39.8933 OE            1 RES     
    3470 C           30.9789     8.9425    40.1650 C             1 RES     
    3471 O           30.1622     9.4323    39.3866 O             1 RES     
    3472 CH2         30.8783     8.5637    41.5145 CH2           1 RES     
    3473 CH2         29.3892     8.8167    41.8150 CH2           1 RES     
    3474 CH2         29.1275     8.6180    43.3195 CH2           1 RES     
    3475 CH2         27.6384     8.8709    43.6201 CH2           1 RES     
    3476 CH2         27.3767     8.6722    45.1246 CH2           1 RES     
    3477 CH2         25.8876     8.9251    45.4252 CH2           1 RES     
    3478 CH2         25.6259     8.7265    46.9297 CH2           1 RES     
    3479 CH2         24.1368     8.9794    47.2302 CH2           1 RES     
    3480 CH2         23.8751     8.7807    48.7348 CH2           1 RES     
    3481 CH2         22.3860     9.0336    49.0353 CH2           1 RES     
    3482 CH2         22.1243     8.8349    50.5398 CH2           1 RES     
    3483 CH2         20.6353     9.0879    50.8404 CH2           1 RES     
    3484 CH2         20.3735     8.8892    52.3449 CH2           1 RES     
    3485 CH2         18.8845     9.1421    52.6454 CH2           1 RES     
    3486 CH2         18.6227     8.9434    54.1500 CH2           1 RES     
    3487 CH2         17.1337     9.1963    54.4505 CH2           1 RES     
    3488 CH3         16.8838     9.0067    55.8866 CH3           1 RES     
    3489 CH3         25.1272    27.1431    31.1886 CH3           1 RES     
    3490 CH3         27.1005    28.2956    31.7462 CH3           1 RES     
    3491 CH3         25.8201    28.9709    30.1069 CH3           1 RES     
    3492 NL          25.8450    28.3758    31.2884 NL            1 RES     
    3493 CH2         25.0999    29.2513    32.0739 CH2           1 RES     
    3494 CH2         25.1496    28.5321    33.4348 CH2           1 RES     
    3495 OA          24.3939    29.3214    34.4404 OA            1 RES     
    3496 P           25.4110    30.3453    35.1311 P             1 RES     
    3497 OM          26.5358    29.4646    35.8518 OM            1 RES     
    3498 OM          25.9586    31.3048    33.9738 OM            1 RES     
    3499 OA          24.6320    31.2163    36.2241 OA            1 RES     
    3500 CH2         25.6044    32.1527    36.8427 CH2           1 RES     
    3501 CH1         25.2868    32.4473    38.1300 CH1           1 RES     
    3502 OE          26.5386    31.7402    38.4367 OE            1 RES     
    3503 C           26.8266    31.0514    39.7377 C             1 RES     
    3504 O           27.5755    30.0837    39.8628 O             1 RES     
    3505 CH2         25.9089    31.6475    40.6193 CH2           1 RES     
    3506 CH2         26.1217    30.8360    41.9107 CH2           1 RES     
    3507 CH2         25.0622    31.2407    42.9525 CH2           1 RES     
    3508 CH2         25.2749    30.4293    44.2440 CH2           1 RES     
    3509 CH2         24.2154    30.8339    45.2857 CH2           1 RES     
    3510 CH2         24.4281    30.0225    46.5772 CH2           1 RES     
    3511 CH2         23.3686    30.4272    47.6190 CH2           1 RES     
    3512 CH2         23.5813    29.6157    48.9105 CH2           1 RES     
    3513 CH2         22.5218    30.0204    49.9522 CH2           1 RES     
    3514 CH2         22.7345    29.2089    51.2437 CH2           1 RES     
    3515 CH2         21.6750    29.6136    52.2855 CH2           1 RES     
    3516 CH2         21.8878    28.8022    53.5769 CH2           1 RES     
    3517 CH2         20.8282    29.2068    54.6187 CH2           1 RES     
    3518 CH2         21.0410    28.3954    55.9102 CH2           1 RES     
    3519 CH2         19.9815    28.8001    56.9519 CH2           1 RES     
    3520 CH2         20.1942    27.9886    58.2434 CH2           1 RES     
    3521 CH3         19.1828    28.3749    59.2378 CH3           1 RES     
    3522 CH2         24.0889    31.5811    38.5619 CH2           1 RES     
    3523 OE          24.4473    31.0878    39.8933 OE            1 RES     
    3524 C           23.2107    30.2833    40.1650 C             1 RES     
    3525 O           22.2645    30.1758    39.3866 O             1 RES     
    3526 CH2         23.3610    29.9214    41.5145 CH2           1 RES     
    3527 CH2         22.0249    29.2171    41.8150 CH2           1 RES     
    3528 CH2         21.9378    28.9003    43.3195 CH2           1 RES     
    3529 CH2         20.6017    28.1960    43.6201 CH2           1 RES     
    3530 CH2         20.5146    27.8792    45.1246 CH2           1 RES     
    3531 CH2         19.1785    27.1749    45.4252 CH2           1 RES     
    3532 CH2         19.0914    26.8580    46.9297 CH2           1 RES     
    3533 CH2         17.7553    26.1537    47.2302 CH2           1 RES     
    3534 CH2         17.6682    25.8369    48.7348 CH2           1 RES     
    3535 CH2         16.3320    25.1326    49.0353 CH2           1 RES     
    3536 CH2         16.2450    24.8158    50.5398 CH2           1 RES     
    3537 CH2         14.9088    24.1115    50.8404 CH2           1 RES     
    3538 CH2         14.8218    23.7946    52.3449 CH2           1 RES     
    3539 CH2         13.4856    23.0904    52.6454 CH2           1 RES     
    3540 CH2         13.3985    22.7735    54.1500 CH2           1 RES     
    3541 CH2         12.0624    22.0692    54.4505 CH2           1 RES     
    3542 CH3         11.9793    21.7668    55.8866 CH3           1 RES     
    3543 CH3         46.9863     5.2840    31.1886 CH3           1 RES     
    3544 CH3         49.1356     6.0604    31.7462 CH3           1 RES     
    3545 CH3         47.9985     6.9563    30.1069 CH3           1 RES     
    3546 NL          47.9154     6.3665    31.2884 NL            1 RES     
    3547 CH2         47.3410     7.3623    32.0739 CH2           1 RES     
    3548 CH2         47.2597     6.6460    33.4348 CH2           1 RES     
    3549 OA          46.6593     7.5590    34.4404 OA            1 RES     
    3550 P           47.8449     8.3820    35.1311 P             1 RES     
    3551 OM          48.7917     7.3123    35.8518 OM            1 RES     
    3552 OM          48.5571     9.2265    33.9738 OM            1 RES     
    3553 OA          47.2363     9.3796    36.2241 OA            1 RES     
    3554 CH2         48.3622    10.1245    36.8427 CH2           1 RES     
    3555 CH1         48.1031    10.4717    38.1300 CH1           1 RES     
    3556 OE          49.2063     9.5498    38.4367 OE            1 RES     
    3557 C           49.3649     8.8202    39.7377 C             1 RES     
    3558 O           49.9263     7.7330    39.8628 O             1 RES     
    3559 CH2         48.5703     9.5726    40.6193 CH2           1 RES     
    3560 CH2         48.6326     8.7360    41.9107 CH2           1 RES     
    3561 CH2         47.6639     9.3257    42.9525 CH2           1 RES     
    3562 CH2         47.7262     8.4892    44.2440 CH2           1 RES     
    3563 CH2         46.7574     9.0789    45.2857 CH2           1 RES     
    3564 CH2         46.8198     8.2424    46.5772 CH2           1 RES     
    3565 CH2         45.8510     8.8321    47.6190 CH2           1 RES     
    3566 CH2         45.9134     7.9956    48.9105 CH2           1 RES     
    3567 CH2         44.9446     8.5853    49.9522 CH2           1 RES     
    3568 CH2         45.0070     7.7488    51.2437 CH2           1 RES     
    3569 CH2         44.0382     8.3385    52.2855 CH2           1 RES     
    3570 CH2         44.1006     7.5020    53.5769 CH2           1 RES     
    3571 CH2         43.1318     8.0917    54.6187 CH2           1 RES     
    3572 CH2         43.1942     7.2551    55.9102 CH2           1 RES     
    3573 CH2         42.2254     7.8449    56.9519 CH2           1 RES     
    3574 CH2         42.2877     7.0083    58.2434 CH2           1 RES     
    3575 CH3         41.3630     7.5713    59.2378 CH3           1 RES     
    3576 CH2         46.7683     9.8366    38.5619 CH2           1 RES     
    3577 OE          47.0315     9.2866    39.8933 OE            1 RES     
    3578 C           45.6698     8.7192    40.1650 C             1 RES     
    3579 O           44.7197     8.7847    39.3866 O             1 RES     
    3580 CH2         45.7521     8.3361    41.5145 CH2           1 RES     
    3581 CH2         44.3105     7.8852    41.8150 CH2           1 RES     
    3582 CH2         44.1676     7.5894    43.3195 CH2           1 RES     
    3583 CH2         42.7260     7.1385    43.6201 CH2           1 RES     
    3584 CH2         42.5831     6.8427    45.1246 CH2           1 RES     
    3585 CH2         41.1415     6.3918    45.4252 CH2           1 RES     
    3586 CH2         40.9985     6.0960    46.9297 CH2           1 RES     
    3587 CH2         39.5570     5.6451    47.2302 CH2           1 RES     
    3588 CH2         39.4140     5.3493    48.7348 CH2           1 RES     
    3589 CH2         37.9725     4.8984    49.0353 CH2           1 RES     
    3590 CH2         37.8295     4.6026    50.5398 CH2           1 RES     
    3591 CH2         36.3880     4.1517    50.8404 CH2           1 RES     
    3592 CH2         36.2450     3.8558    52.3449 CH2           1 RES     
    3593 CH2         34.8035     3.4050    52.6454 CH2           1 RES     
    3594 CH2         34.6605     3.1091    54.1500 CH2           1 RES     
    3595 CH2         33.2190     2.6583    54.4505 CH2           1 RES     
    3596 CH3         33.0825     2.3759    55.8866 CH3           1 RES     
    3597 CH3         41.5215    10.7488    31.1886 CH3           1 RES     
    3598 CH3         43.7180    10.1183    31.7462 CH3           1 RES     
    3599 CH3         43.3217    11.5106    30.1069 CH3           1 RES     
    3600 NL          42.9087    11.0814    31.2884 NL            1 RES     
    3601 CH2         43.0270    12.2249    32.0739 CH2           1 RES     
    3602 CH2         42.5413    11.6922    33.4348 CH2           1 RES     
    3603 OA          42.5899    12.7838    34.4404 OA            1 RES     
    3604 P           44.0328    12.7558    35.1311 P             1 RES     
    3605 OM          44.1731    11.3342    35.8518 OM            1 RES     
    3606 OM          45.1049    13.0226    33.9738 OM            1 RES     
    3607 OA          44.1244    13.9207    36.2241 OA            1 RES     
    3608 CH2         45.4732    13.8645    36.8427 CH2           1 RES     
    3609 CH1         45.4668    14.2977    38.1300 CH1           1 RES     
    3610 OE          45.8204    12.9042    38.4367 OE            1 RES     
    3611 C           45.5213    12.2200    39.7377 C             1 RES     
    3612 O           45.3390    11.0101    39.8628 O             1 RES     
    3613 CH2         45.3183    13.2953    40.6193 CH2           1 RES     
    3614 CH2         44.8786    12.5809    41.9107 CH2           1 RES     
    3615 CH2         44.4393    13.6266    42.9525 CH2           1 RES     
    3616 CH2         43.9995    12.9122    44.2440 CH2           1 RES     
    3617 CH2         43.5602    13.9578    45.2857 CH2           1 RES     
    3618 CH2         43.1205    13.2434    46.5772 CH2           1 RES     
    3619 CH2         42.6811    14.2890    47.6190 CH2           1 RES     
    3620 CH2         42.2414    13.5747    48.9105 CH2           1 RES     
    3621 CH2         41.8020    14.6203    49.9522 CH2           1 RES     
    3622 CH2         41.3623    13.9059    51.2437 CH2           1 RES     
    3623 CH2         40.9229    14.9515    52.2855 CH2           1 RES     
    3624 CH2         40.4832    14.2371    53.5769 CH2           1 RES     
    3625 CH2         40.0439    15.2827    54.6187 CH2           1 RES     
    3626 CH2         39.6041    14.5684    55.9102 CH2           1 RES     
    3627 CH2         39.1648    15.6140    56.9519 CH2           1 RES     
    3628 CH2         38.7250    14.8996    58.2434 CH2           1 RES     
    3629 CH3         38.3057    15.8977    59.2378 CH3           1 RES     
    3630 CH2         44.0130    14.5654    38.5619 CH2           1 RES     
    3631 OE          43.9039    13.9655    39.8933 OE            1 RES     
    3632 C           42.4681    14.3038    40.1650 C             1 RES     
    3633 O           41.7366    14.9137    39.3866 O             1 RES     
    3634 CH2         42.3102    13.9451    41.5145 CH2           1 RES     
    3635 CH2         40.8780    14.4246    41.8150 CH2           1 RES     
    3636 CH2         40.5887    14.2687    43.3195 CH2           1 RES     
    3637 CH2         39.1565    14.7482    43.6201 CH2           1 RES     
    3638 CH2         38.8672    14.5923    45.1246 CH2           1 RES     
    3639 CH2         37.4350    15.0718    45.4252 CH2           1 RES     
    3640 CH2         37.1458    14.9159    46.9297 CH2           1 RES     
    3641 CH2         35.7135    15.3954    47.2302 CH2           1 RES     
    3642 CH2         35.4243    15.2395    48.7348 CH2           1 RES     
    3643 CH2         33.9920    15.7190    49.0353 CH2           1 RES     
    3644 CH2         33.7028    15.5631    50.5398 CH2           1 RES     
    3645 CH2         32.2705    16.0426    50.8404 CH2           1 RES     
    3646 CH2         31.9813    15.8867    52.3449 CH2           1 RES     
    3647 CH2         30.5490    16.3662    52.6454 CH2           1 RES     
    3648 CH2         30.2598    16.2103    54.1500 CH2           1 RES     
    3649 CH2         28.8276    16.6898    54.4505 CH2           1 RES     
    3650 CH3         28.5515    16.5410    55.8866 CH3           1 RES     
    3651 CH3         46.9863    43.5374    31.1886 CH3           1 RES     
    3652 CH3         49.0207    44.5783    31.7462 CH3           1 RES     
    3653 CH3         47.7799    45.3238    30.1069 CH3           1 RES     
    3654 NL          47.7717    44.7283    31.2884 NL            1 RES     
    3655 CH2         47.0765    45.6438    32.0739 CH2           1 RES     
    3656 CH2         47.0860    44.9230    33.4348 CH2           1 RES     
    3657 OA          46.3754    45.7531    34.4404 OA            1 RES     
    3658 P           47.4479    46.7188    35.1311 P             1 RES     
    3659 OM          48.5220    45.7769    35.8518 OM            1 RES     
    3660 OM          48.0482    47.6463    33.9738 OM            1 RES     
    3661 OA          46.7186    47.6319    36.2241 OA            1 RES     
    3662 CH2         47.7417    48.5126    36.8427 CH2           1 RES     
    3663 CH1         47.4410    48.8244    38.1300 CH1           1 RES     
    3664 OE          48.6515    48.0488    38.4367 OE            1 RES     
    3665 C           48.9007    47.3450    39.7377 C             1 RES     
    3666 O           49.5945    46.3371    39.8628 O             1 RES     
    3667 CH2         48.0177    47.9913    40.6193 CH2           1 RES     
    3668 CH2         48.1849    47.1692    41.9107 CH2           1 RES     
    3669 CH2         47.1495    47.6323    42.9525 CH2           1 RES     
    3670 CH2         47.3167    46.8102    44.2440 CH2           1 RES     
    3671 CH2         46.2814    47.2733    45.2857 CH2           1 RES     
    3672 CH2         46.4486    46.4513    46.5772 CH2           1 RES     
    3673 CH2         45.4133    46.9143    47.6190 CH2           1 RES     
    3674 CH2         45.5805    46.0923    48.9105 CH2           1 RES     
    3675 CH2         44.5452    46.5553    49.9522 CH2           1 RES     
    3676 CH2         44.7124    45.7333    51.2437 CH2           1 RES     
    3677 CH2         43.6770    46.1963    52.2855 CH2           1 RES     
    3678 CH2         43.8443    45.3743    53.5769 CH2           1 RES     
    3679 CH2         42.8089    45.8374    54.6187 CH2           1 RES     
    3680 CH2         42.9761    45.0153    55.9102 CH2           1 RES     
    3681 CH2         41.9408    45.4784    56.9519 CH2           1 RES     
    3682 CH2         42.1080    44.6564    58.2434 CH2           1 RES     
    3683 CH3         41.1197    45.0984    59.2378 CH3           1 RES     
    3684 CH2         46.1968    48.0263    38.5619 CH2           1 RES     
    3685 OE          46.5271    47.5138    39.8933 OE            1 RES     
    3686 C           45.2477    46.7795    40.1650 C             1 RES     
    3687 O           44.2969    46.7248    39.3866 O             1 RES     
    3688 CH2         45.3776    46.4098    41.5145 CH2           1 RES     
    3689 CH2         44.0043    45.7810    41.8150 CH2           1 RES     
    3690 CH2         43.8997    45.4695    43.3195 CH2           1 RES     
    3691 CH2         42.5264    44.8407    43.6201 CH2           1 RES     
    3692 CH2         42.4218    44.5292    45.1246 CH2           1 RES     
    3693 CH2         41.0485    43.9004    45.4252 CH2           1 RES     
    3694 CH2         40.9440    43.5889    46.9297 CH2           1 RES     
    3695 CH2         39.5707    42.9601    47.2302 CH2           1 RES     
    3696 CH2         39.4661    42.6486    48.7348 CH2           1 RES     
    3697 CH2         38.0928    42.0199    49.0353 CH2           1 RES     
    3698 CH2         37.9882    41.7083    50.5398 CH2           1 RES     
    3699 CH2         36.6149    41.0796    50.8404 CH2           1 RES     
    3700 CH2         36.5104    40.7681    52.3449 CH2           1 RES     
    3701 CH2         35.1371    40.1393    52.6454 CH2           1 RES     
    3702 CH2         35.0325    39.8278    54.1500 CH2           1 RES     
    3703 CH2         33.6592    39.1990    54.4505 CH2           1 RES     
    3704 CH3         33.5594    38.9017    55.8866 CH3           1 RES     
    3705 CH3         41.5215    38.0726    31.1886 CH3           1 RES     
    3706 CH3         43.4092    39.3605    31.7462 CH3           1 RES     
    3707 CH3         42.0847    39.9445    30.1069 CH3           1 RES     
    3708 NL          42.1512    39.3526    31.2884 NL            1 RES     
    3709 CH2         41.3467    40.1737    32.0739 CH2           1 RES     
    3710 CH2         41.4466    39.4598    33.4348 CH2           1 RES     
    3711 OA          40.6375    40.1942    34.4404 OA            1 RES     
    3712 P           41.5803    41.2868    35.1311 P             1 RES     
    3713 OM          42.7640    40.4871    35.8518 OM            1 RES     
    3714 OM          42.0594    42.2823    33.9738 OM            1 RES     
    3715 OA          40.7422    42.1012    36.2241 OA            1 RES     
    3716 CH2         41.6467    43.1033    36.8427 CH2           1 RES     
    3717 CH1         41.3092    43.3749    38.1300 CH1           1 RES     
    3718 OE          42.6074    42.7573    38.4367 OE            1 RES     
    3719 C           42.9430    42.0904    39.7377 C             1 RES     
    3720 O           43.7578    41.1775    39.8628 O             1 RES     
    3721 CH2         41.9859    42.6207    40.6193 CH2           1 RES     
    3722 CH2         42.2549    41.8261    41.9107 CH2           1 RES     
    3723 CH2         41.1696    42.1556    42.9525 CH2           1 RES     
    3724 CH2         41.4387    41.3611    44.2440 CH2           1 RES     
    3725 CH2         40.3534    41.6905    45.2857 CH2           1 RES     
    3726 CH2         40.6225    40.8960    46.5772 CH2           1 RES     
    3727 CH2         39.5372    41.2255    47.6190 CH2           1 RES     
    3728 CH2         39.8063    40.4309    48.9105 CH2           1 RES     
    3729 CH2         38.7210    40.7604    49.9522 CH2           1 RES     
    3730 CH2         38.9900    39.9658    51.2437 CH2           1 RES     
    3731 CH2         37.9048    40.2953    52.2855 CH2           1 RES     
    3732 CH2         38.1738    39.5008    53.5769 CH2           1 RES     
    3733 CH2         37.0886    39.8302    54.6187 CH2           1 RES     
    3734 CH2         37.3576    39.0357    55.9102 CH2           1 RES     
    3735 CH2         36.2723    39.3652    56.9519 CH2           1 RES     
    3736 CH2         36.5414    38.5706    58.2434 CH2           1 RES     
    3737 CH3         35.5055    38.8851    59.2378 CH3           1 RES     
    3738 CH2         40.1750    42.4270    38.5619 CH2           1 RES     
    3739 OE          40.5670    41.9600    39.8933 OE            1 RES     
    3740 C           39.3898    41.0709    40.1650 C             1 RES     
    3741 O           38.4534    40.8974    39.3866 O             1 RES     
    3742 CH2         39.5651    40.7204    41.5145 CH2           1 RES     
    3743 CH2         38.2816    39.9243    41.8150 CH2           1 RES     
    3744 CH2         38.2169    39.6021    43.3195 CH2           1 RES     
    3745 CH2         36.9334    38.8060    43.6201 CH2           1 RES     
    3746 CH2         36.8687    38.4838    45.1246 CH2           1 RES     
    3747 CH2         35.5852    37.6877    45.4252 CH2           1 RES     
    3748 CH2         35.5205    37.3655    46.9297 CH2           1 RES     
    3749 CH2         34.2370    36.5694    47.2302 CH2           1 RES     
    3750 CH2         34.1723    36.2472    48.7348 CH2           1 RES     
    3751 CH2         32.8888    35.4511    49.0353 CH2           1 RES     
    3752 CH2         32.8241    35.1289    50.5398 CH2           1 RES     
    3753 CH2         31.5405    34.3328    50.8404 CH2           1 RES     
    3754 CH2         31.4759    34.0106    52.3449 CH2           1 RES     
    3755 CH2         30.1923    33.2145    52.6454 CH2           1 RES     
    3756 CH2         30.1277    32.8923    54.1500 CH2           1 RES     
    3757 CH2         28.8441    32.0962    54.4505 CH2           1 RES     
    3758 CH3         28.7824    31.7887    55.8866 CH3           1 RES     
    3759 CH3         52.4511    10.7488    31.1886 CH3           1 RES     
    3760 CH3         54.6279    11.4443    31.7462 CH3           1 RES     
    3761 CH3         53.5251    12.3820    30.1069 CH3           1 RES     
    3762 NL          53.4200    11.7958    31.2884 NL            1 RES     
    3763 CH2         52.8832    12.8124    32.0739 CH2           1 RES     
    3764 CH2         52.7752    12.0996    33.4348 CH2           1 RES     
    3765 OA          52.2094    13.0344    34.4404 OA            1 RES     
    3766 P           53.4249    13.8125    35.1311 P             1 RES     
    3767 OM          54.3311    12.7082    35.8518 OM            1 RES     
    3768 OM          54.1683    14.6298    33.9738 OM            1 RES     
    3769 OA          52.8541    14.8322    36.2241 OA            1 RES     
    3770 CH2         54.0070    15.5345    36.8427 CH2           1 RES     
    3771 CH1         53.7611    15.8911    38.1300 CH1           1 RES     
    3772 OE          54.8290    14.9286    38.4367 OE            1 RES     
    3773 C           54.9603    14.1936    39.7377 C             1 RES     
    3774 O           55.4806    13.0861    39.8628 O             1 RES     
    3775 CH2         54.1943    14.9751    40.6193 CH2           1 RES     
    3776 CH2         54.2254    14.1368    41.9107 CH2           1 RES     
    3777 CH2         53.2793    14.7623    42.9525 CH2           1 RES     
    3778 CH2         53.3103    13.9241    44.2440 CH2           1 RES     
    3779 CH2         52.3643    14.5496    45.2857 CH2           1 RES     
    3780 CH2         52.3953    13.7113    46.5772 CH2           1 RES     
    3781 CH2         51.4493    14.3369    47.6190 CH2           1 RES     
    3782 CH2         51.4803    13.4986    48.9105 CH2           1 RES     
    3783 CH2         50.5343    14.1241    49.9522 CH2           1 RES     
    3784 CH2         50.5653    13.2858    51.2437 CH2           1 RES     
    3785 CH2         49.6193    13.9114    52.2855 CH2           1 RES     
    3786 CH2         49.6503    13.0731    53.5769 CH2           1 RES     
    3787 CH2         48.7042    13.6986    54.6187 CH2           1 RES     
    3788 CH2         48.7353    12.8603    55.9102 CH2           1 RES     
    3789 CH2         47.7892    13.4859    56.9519 CH2           1 RES     
    3790 CH2         47.8203    12.6476    58.2434 CH2           1 RES     
    3791 CH3         46.9172    13.2447    59.2378 CH3           1 RES     
    3792 CH2         52.4035    15.3064    38.5619 CH2           1 RES     
    3793 OE          52.6459    14.7469    39.8933 OE            1 RES     
    3794 C           51.2639    14.2308    40.1650 C             1 RES     
    3795 O           50.3169    14.3318    39.3866 O             1 RES     
    3796 CH2         51.3318    13.8449    41.5145 CH2           1 RES     
    3797 CH2         49.8745    13.4483    41.8150 CH2           1 RES     
    3798 CH2         49.7205    13.1580    43.3195 CH2           1 RES     
    3799 CH2         48.2631    12.7613    43.6201 CH2           1 RES     
    3800 CH2         48.1092    12.4710    45.1246 CH2           1 RES     
    3801 CH2         46.6518    12.0744    45.4252 CH2           1 RES     
    3802 CH2         46.4979    11.7841    46.9297 CH2           1 RES     
    3803 CH2         45.0405    11.3875    47.2302 CH2           1 RES     
    3804 CH2         44.8865    11.0972    48.7348 CH2           1 RES     
    3805 CH2         43.4292    10.7005    49.0353 CH2           1 RES     
    3806 CH2         43.2752    10.4102    50.5398 CH2           1 RES     
    3807 CH2         41.8178    10.0136    50.8404 CH2           1 RES     
    3808 CH2         41.6639     9.7233    52.3449 CH2           1 RES     
    3809 CH2         40.2065     9.3267    52.6454 CH2           1 RES     
    3810 CH2         40.0526     9.0364    54.1500 CH2           1 RES     
    3811 CH2         38.5952     8.6397    54.4505 CH2           1 RES     
    3812 CH3         38.4483     8.3626    55.8866 CH3           1 RES     
    3813 CH3         46.9863    32.6078    31.1886 CH3           1 RES     
    3814 CH3         49.1687    33.2855    31.7462 CH3           1 RES     
    3815 CH3         48.0736    34.2323    30.1069 CH3           1 RES     
    3816 NL          47.9637    33.6469    31.2884 NL            1 RES     
    3817 CH2         47.4353    34.6679    32.0739 CH2           1 RES     
    3818 CH2         47.3214    33.9560    33.4348 CH2           1 RES     
    3819 OA          46.7633    34.8954    34.4404 OA            1 RES     
    3820 P           47.9851    35.6635    35.1311 P             1 RES     
    3821 OM          48.8823    34.5518    35.8518 OM            1 RES     
    3822 OM          48.7351    36.4747    33.9738 OM            1 RES     
    3823 OA          47.4227    36.6878    36.2241 OA            1 RES     
    3824 CH2         48.5813    37.3807    36.8427 CH2           1 RES     
    3825 CH1         48.3383    37.7393    38.1300 CH1           1 RES     
    3826 OE          49.3983    36.7681    38.4367 OE            1 RES     
    3827 C           49.5236    36.0320    39.7377 C             1 RES     
    3828 O           50.0348    34.9203    39.8628 O             1 RES     
    3829 CH2         48.7640    36.8198    40.6193 CH2           1 RES     
    3830 CH2         48.7882    35.9813    41.9107 CH2           1 RES     
    3831 CH2         47.8473    36.6145    42.9525 CH2           1 RES     
    3832 CH2         47.8715    35.7760    44.2440 CH2           1 RES     
    3833 CH2         46.9306    36.4093    45.2857 CH2           1 RES     
    3834 CH2         46.9548    35.5707    46.5772 CH2           1 RES     
    3835 CH2         46.0139    36.2040    47.6190 CH2           1 RES     
    3836 CH2         46.0381    35.3655    48.9105 CH2           1 RES     
    3837 CH2         45.0971    35.9987    49.9522 CH2           1 RES     
    3838 CH2         45.1213    35.1602    51.2437 CH2           1 RES     
    3839 CH2         44.1804    35.7935    52.2855 CH2           1 RES     
    3840 CH2         44.2046    34.9550    53.5769 CH2           1 RES     
    3841 CH2         43.2637    35.5882    54.6187 CH2           1 RES     
    3842 CH2         43.2879    34.7497    55.9102 CH2           1 RES     
    3843 CH2         42.3470    35.3830    56.9519 CH2           1 RES     
    3844 CH2         42.3712    34.5445    58.2434 CH2           1 RES     
    3845 CH3         41.4730    35.1489    59.2378 CH3           1 RES     
    3846 CH2         46.9760    37.1657    38.5619 CH2           1 RES     
    3847 OE          47.2138    36.6043    39.8933 OE            1 RES     
    3848 C           45.8276    36.0995    40.1650 C             1 RES     
    3849 O           44.8815    36.2082    39.3866 O             1 RES     
    3850 CH2         45.8924    35.7130    41.5145 CH2           1 RES     
    3851 CH2         44.4318    35.3283    41.8150 CH2           1 RES     
    3852 CH2         44.2755    35.0393    43.3195 CH2           1 RES     
    3853 CH2         42.8149    34.6546    43.6201 CH2           1 RES     
    3854 CH2         42.6586    34.3655    45.1246 CH2           1 RES     
    3855 CH2         41.1981    33.9808    45.4252 CH2           1 RES     
    3856 CH2         41.0418    33.6918    46.9297 CH2           1 RES     
    3857 CH2         39.5812    33.3071    47.2302 CH2           1 RES     
    3858 CH2         39.4249    33.0180    48.7348 CH2           1 RES     
    3859 CH2         37.9643    32.6333    49.0353 CH2           1 RES     
    3860 CH2         37.8080    32.3443    50.5398 CH2           1 RES     
    3861 CH2         36.3474    31.9596    50.8404 CH2           1 RES     
    3862 CH2         36.1911    31.6706    52.3449 CH2           1 RES     
    3863 CH2         34.7305    31.2859    52.6454 CH2           1 RES     
    3864 CH2         34.5742    30.9968    54.1500 CH2           1 RES     
    3865 CH2         33.1136    30.6121    54.4505 CH2           1 RES     
    3866 CH3         32.9644    30.3362    55.8866 CH3           1 RES     
    3867 CH3         14.1977    38.0726    31.1886 CH3           1 RES     
    3868 CH3         16.2411    39.0957    31.7462 CH3           1 RES     
    3869 CH3         15.0068    39.8520    30.1069 CH3           1 RES     
    3870 NL          14.9934    39.2566    31.2884 NL            1 RES     
    3871 CH2         14.3063    40.1782    32.0739 CH2           1 RES     
    3872 CH2         14.3095    39.4573    33.4348 CH2           1 RES     
    3873 OA          13.6062    40.2936    34.4404 OA            1 RES     
    3874 P           14.6871    41.2499    35.1311 P             1 RES     
    3875 OM          15.7529    40.2986    35.8518 OM            1 RES     
    3876 OM          15.2955    42.1721    33.9738 OM            1 RES     
    3877 OA          13.9659    42.1693    36.2241 OA            1 RES     
    3878 CH2         14.9966    43.0411    36.8427 CH2           1 RES     
    3879 CH1         14.6986    43.3555    38.1300 CH1           1 RES     
    3880 OE          15.9023    42.5693    38.4367 OE            1 RES     
    3881 C           16.1453    41.8633    39.7377 C             1 RES     
    3882 O           16.8303    40.8494    39.8628 O             1 RES     
    3883 CH2         15.2680    42.5173    40.6193 CH2           1 RES     
    3884 CH2         15.4280    41.6938    41.9107 CH2           1 RES     
    3885 CH2         14.3967    42.1659    42.9525 CH2           1 RES     
    3886 CH2         14.5568    41.3425    44.2440 CH2           1 RES     
    3887 CH2         13.5255    41.8145    45.2857 CH2           1 RES     
    3888 CH2         13.6855    40.9911    46.5772 CH2           1 RES     
    3889 CH2         12.6543    41.4632    47.6190 CH2           1 RES     
    3890 CH2         12.8143    40.6397    48.9105 CH2           1 RES     
    3891 CH2         11.7830    41.1118    49.9522 CH2           1 RES     
    3892 CH2         11.9431    40.2883    51.2437 CH2           1 RES     
    3893 CH2         10.9118    40.7604    52.2855 CH2           1 RES     
    3894 CH2         11.0718    39.9370    53.5769 CH2           1 RES     
    3895 CH2         10.0406    40.4091    54.6187 CH2           1 RES     
    3896 CH2         10.2006    39.5856    55.9102 CH2           1 RES     
    3897 CH2          9.1694    40.0577    56.9519 CH2           1 RES     
    3898 CH2          9.3294    39.2342    58.2434 CH2           1 RES     
    3899 CH3          8.3450    39.6849    59.2378 CH3           1 RES     
    3900 CH2         13.4475    42.5683    38.5619 CH2           1 RES     
    3901 OE          13.7733    42.0529    39.8933 OE            1 RES     
    3902 C           12.4875    41.3298    40.1650 C             1 RES     
    3903 O           11.5363    41.2835    39.3866 O             1 RES     
    3904 CH2         12.6142    40.9590    41.5145 CH2           1 RES     
    3905 CH2         11.2354    40.3422    41.8150 CH2           1 RES     
    3906 CH2         11.1281    40.0316    43.3195 CH2           1 RES     
    3907 CH2          9.7494    39.4149    43.6201 CH2           1 RES     
    3908 CH2          9.6421    39.1043    45.1246 CH2           1 RES     
    3909 CH2          8.2633    38.4876    45.4252 CH2           1 RES     
    3910 CH2          8.1560    38.1770    46.9297 CH2           1 RES     
    3911 CH2          6.7773    37.5603    47.2302 CH2           1 RES     
    3912 CH2          6.6700    37.2497    48.7348 CH2           1 RES     
    3913 CH2          5.2913    36.6330    49.0353 CH2           1 RES     
    3914 CH2          5.1839    36.3224    50.5398 CH2           1 RES     
    3915 CH2          3.8052    35.7056    50.8404 CH2           1 RES     
    3916 CH2          3.6979    35.3951    52.3449 CH2           1 RES     
    3917 CH2          2.3192    34.7783    52.6454 CH2           1 RES     
    3918 CH2          2.2119    34.4677    54.1500 CH2           1 RES     
    3919 CH2          0.8331    33.8510    54.4505 CH2           1 RES     
    3920 CH3          0.7307    33.5545    55.8866 CH3           1 RES     
    3921 CH3          7.2079    23.8881    46.5351 CH3           1 RES     
    3922 CH2         14.5826    22.4481    34.9567 CH2           1 RES     
    3923 CH2         13.2294    22.7737    35.6159 CH2           1 RES     
    3924 CH2         13.3660    22.6739    37.1466 CH2           1 RES     
    3925 CH2         12.0128    22.9996    37.8057 CH2           1 RES     
    3926 CH2         12.1494    22.8997    39.3364 CH2           1 RES     
    3927 CH2         10.7962    23.2254    39.9956 CH2           1 RES     
    3928 CH2         10.9328    23.1256    41.5262 CH2           1 RES     
    3929 CH2          9.5796    23.4512    42.1854 CH2           1 RES     
    3930 CH2          9.7161    23.3514    43.7161 CH2           1 RES     
    3931 CH2          8.3630    23.6771    44.3752 CH2           1 RES     
    3932 CH2          8.4995    23.5772    45.9059 CH2           1 RES     
    3933 OA          14.4545    22.5417    33.5205 OA            1 RES     
    3934 H           14.1977    21.6783    33.1886 H             1 RES     
    3935 CH3         34.2353    17.0209    46.5351 CH3           1 RES     
    3936 CH2         41.7493    17.0435    34.9567 CH2           1 RES     
    3937 CH2         40.3586    17.0996    35.6159 CH2           1 RES     
    3938 CH2         40.5120    17.0282    37.1466 CH2           1 RES     
    3939 CH2         39.1213    17.0844    37.8057 CH2           1 RES     
    3940 CH2         39.2747    17.0130    39.3364 CH2           1 RES     
    3941 CH2         37.8840    17.0691    39.9956 CH2           1 RES     
    3942 CH2         38.0374    16.9978    41.5262 CH2           1 RES     
    3943 CH2         36.6467    17.0539    42.1854 CH2           1 RES     
    3944 CH2         36.8001    16.9825    43.7161 CH2           1 RES     
    3945 CH2         35.4094    17.0387    44.3752 CH2           1 RES     
    3946 CH2         35.5628    16.9673    45.9059 CH2           1 RES     
    3947 OA          41.6054    17.1104    33.5205 OA            1 RES     
    3948 H           41.5215    16.2135    33.1886 H             1 RES     
    3949 CH3         17.8055     5.6486    46.5351 CH3           1 RES     
    3950 CH2         25.3043     6.1262    34.9567 CH2           1 RES     
    3951 CH2         23.9128     6.0980    35.6159 CH2           1 RES     
    3952 CH2         24.0702     6.0361    37.1466 CH2           1 RES     
    3953 CH2         22.6787     6.0079    37.8057 CH2           1 RES     
    3954 CH2         22.8361     5.9459    39.3364 CH2           1 RES     
    3955 CH2         21.4446     5.9177    39.9956 CH2           1 RES     
    3956 CH2         21.6020     5.8558    41.5262 CH2           1 RES     
    3957 CH2         20.2105     5.8276    42.1854 CH2           1 RES     
    3958 CH2         20.3679     5.7656    43.7161 CH2           1 RES     
    3959 CH2         18.9764     5.7374    44.3752 CH2           1 RES     
    3960 CH2         19.1338     5.6755    45.9059 CH2           1 RES     
    3961 OA          25.1566     6.1843    33.5205 OA            1 RES     
    3962 H           25.1272     5.2840    33.1886 H             1 RES     
    3963 CH3         17.9426    36.6162    46.5351 CH3           1 RES     
    3964 CH2         25.0906    38.9325    34.9567 CH2           1 RES     
    3965 CH2         23.7493    38.5612    35.6159 CH2           1 RES     
    3966 CH2         23.9171    38.5401    37.1466 CH2           1 RES     
    3967 CH2         22.5757    38.1688    37.8057 CH2           1 RES     
    3968 CH2         22.7436    38.1477    39.3364 CH2           1 RES     
    3969 CH2         21.4022    37.7764    39.9956 CH2           1 RES     
    3970 CH2         21.5700    37.7553    41.5262 CH2           1 RES     
    3971 CH2         20.2287    37.3840    42.1854 CH2           1 RES     
    3972 CH2         20.3965    37.3629    43.7161 CH2           1 RES     
    3973 CH2         19.0551    36.9917    44.3752 CH2           1 RES     
    3974 CH2         19.2230    36.9706    45.9059 CH2           1 RES     
    3975 OA          24.9332    38.9523    33.5205 OA            1 RES     
    3976 H           25.1272    38.0726    33.1886 H             1 RES     
    3977 CH3         12.5153    28.7738    46.5351 CH3           1 RES     
    3978 CH2         19.9831    27.9417    34.9567 CH2           1 RES     
    3979 CH2         18.6079    28.1556    35.6159 CH2           1 RES     
    3980 CH2         18.7521    28.0673    37.1466 CH2           1 RES     
    3981 CH2         17.3768    28.2812    37.8057 CH2           1 RES     
    3982 CH2         17.5211    28.1929    39.3364 CH2           1 RES     
    3983 CH2         16.1458    28.4068    39.9956 CH2           1 RES     
    3984 CH2         16.2901    28.3185    41.5262 CH2           1 RES     
    3985 CH2         14.9148    28.5324    42.1854 CH2           1 RES     
    3986 CH2         15.0591    28.4440    43.7161 CH2           1 RES     
    3987 CH2         13.6838    28.6579    44.3752 CH2           1 RES     
    3988 CH2         13.8281    28.5696    45.9059 CH2           1 RES     
    3989 OA          19.8478    28.0246    33.5205 OA            1 RES     
    3990 H           19.6625    27.1431    33.1886 H             1 RES     
    3991 CH3         34.7944    35.5209    46.5351 CH3           1 RES     
    3992 CH2         41.9831    33.3342    34.9567 CH2           1 RES     
    3993 CH2         40.6704    33.7966    35.6159 CH2           1 RES     
    3994 CH2         40.7960    33.6833    37.1466 CH2           1 RES     
    3995 CH2         39.4832    34.1456    37.8057 CH2           1 RES     
    3996 CH2         39.6089    34.0323    39.3364 CH2           1 RES     
    3997 CH2         38.2961    34.4947    39.9956 CH2           1 RES     
    3998 CH2         38.4217    34.3814    41.5262 CH2           1 RES     
    3999 CH2         37.1090    34.8438    42.1854 CH2           1 RES     
    4000 CH2         37.2346    34.7305    43.7161 CH2           1 RES     
    4001 CH2         35.9218    35.1928    44.3752 CH2           1 RES     
    4002 CH2         36.0474    35.0795    45.9059 CH2           1 RES     
    4003 OA          41.8653    33.4405    33.5205 OA            1 RES     
    4004 H           41.5215    32.6078    33.1886 H             1 RES     
    4005 CH3         34.7570    29.9684    46.5351 CH3           1 RES     
    4006 CH2         41.9737    27.8754    34.9567 CH2           1 RES     
    4007 CH2         40.6550    28.3206    35.6159 CH2           1 RES     
    4008 CH2         40.7821    28.2090    37.1466 CH2           1 RES     
    4009 CH2         39.4634    28.6542    37.8057 CH2           1 RES     
    4010 CH2         39.5905    28.5426    39.3364 CH2           1 RES     
    4011 CH2         38.2718    28.9878    39.9956 CH2           1 RES     
    4012 CH2         38.3989    28.8762    41.5262 CH2           1 RES     
    4013 CH2         37.0803    29.3214    42.1854 CH2           1 RES     
    4014 CH2         37.2073    29.2098    43.7161 CH2           1 RES     
    4015 CH2         35.8887    29.6550    44.3752 CH2           1 RES     
    4016 CH2         36.0158    29.5434    45.9059 CH2           1 RES     
    4017 OA          41.8544    27.9801    33.5205 OA            1 RES     
    4018 H           41.5215    27.1431    33.1886 H             1 RES     
    4019 CH3         40.0027    12.9781    46.5351 CH3           1 RES     
    4020 CH2         47.3734    11.5174    34.9567 CH2           1 RES     
    4021 CH2         46.0211    11.8469    35.6159 CH2           1 RES     
    4022 CH2         46.1574    11.7467    37.1466 CH2           1 RES     
    4023 CH2         44.8051    12.0761    37.8057 CH2           1 RES     
    4024 CH2         44.9414    11.9759    39.3364 CH2           1 RES     
    4025 CH2         43.5892    12.3054    39.9956 CH2           1 RES     
    4026 CH2         43.7254    12.2052    41.5262 CH2           1 RES     
    4027 CH2         42.3732    12.5346    42.1854 CH2           1 RES     
    4028 CH2         42.5095    12.4344    43.7161 CH2           1 RES     
    4029 CH2         41.1572    12.7639    44.3752 CH2           1 RES     
    4030 CH2         41.2935    12.6636    45.9059 CH2           1 RES     
    4031 OA          47.2455    11.6115    33.5205 OA            1 RES     
    4032 H           46.9863    10.7488    33.1886 H             1 RES     
    4033 CH3         28.7277    21.8384    46.5351 CH3           1 RES     
    4034 CH2         36.2103    22.5251    34.9567 CH2           1 RES     
    4035 CH2         34.8201    22.4581    35.6159 CH2           1 RES     
    4036 CH2         34.9792    22.4006    37.1466 CH2           1 RES     
    4037 CH2         33.5890    22.3336    37.8057 CH2           1 RES     
    4038 CH2         33.7480    22.2760    39.3364 CH2           1 RES     
    4039 CH2         32.3579    22.2090    39.9956 CH2           1 RES     
    4040 CH2         32.5169    22.1515    41.5262 CH2           1 RES     
    4041 CH2         31.1267    22.0845    42.1854 CH2           1 RES     
    4042 CH2         31.2858    22.0270    43.7161 CH2           1 RES     
    4043 CH2         29.8956    21.9599    44.3752 CH2           1 RES     
    4044 CH2         30.0547    21.9024    45.9059 CH2           1 RES     
    4045 OA          36.0610    22.5791    33.5205 OA            1 RES     
    4046 H           36.0568    21.6783    33.1886 H             1 RES     
    4047 CH3         29.0052    18.2174    46.5351 CH3           1 RES     
    4048 CH2         36.4189    16.9942    34.9567 CH2           1 RES     
    4049 CH2         35.0568    17.2801    35.6159 CH2           1 RES     
    4050 CH2         35.1962    17.1843    37.1466 CH2           1 RES     
    4051 CH2         33.8341    17.4702    37.8057 CH2           1 RES     
    4052 CH2         33.9735    17.3744    39.3364 CH2           1 RES     
    4053 CH2         32.6114    17.6602    39.9956 CH2           1 RES     
    4054 CH2         32.7508    17.5644    41.5262 CH2           1 RES     
    4055 CH2         31.3887    17.8503    42.1854 CH2           1 RES     
    4056 CH2         31.5281    17.7545    43.7161 CH2           1 RES     
    4057 CH2         30.1660    18.0404    44.3752 CH2           1 RES     
    4058 CH2         30.3054    17.9446    45.9059 CH2           1 RES     
    4059 OA          36.2881    17.0841    33.5205 OA            1 RES     
    4060 H           36.0568    16.2135    33.1886 H             1 RES     
    4061 CH3         18.2794    29.9909    46.5351 CH3           1 RES     
    4062 CH2         24.9499    33.4500    34.9567 CH2           1 RES     
    4063 CH2         23.6877    32.8634    35.6159 CH2           1 RES     
    4064 CH2         23.8568    32.8702    37.1466 CH2           1 RES     
    4065 CH2         22.5946    32.2836    37.8057 CH2           1 RES     
    4066 CH2         22.7636    32.2903    39.3364 CH2           1 RES     
    4067 CH2         21.5015    31.7037    39.9956 CH2           1 RES     
    4068 CH2         21.6705    31.7105    41.5262 CH2           1 RES     
    4069 CH2         20.4083    31.1239    42.1854 CH2           1 RES     
    4070 CH2         20.5774    31.1307    43.7161 CH2           1 RES     
    4071 CH2         19.3152    30.5441    44.3752 CH2           1 RES     
    4072 CH2         19.4842    30.5508    45.9059 CH2           1 RES     
    4073 OA          24.7913    33.4437    33.5205 OA            1 RES     
    4074 H           25.1272    32.6078    33.1886 H             1 RES     
    4075 CH3         46.2127    47.3875    46.5351 CH3           1 RES     
    4076 CH2         53.0123    44.1898    34.9567 CH2           1 RES     
    4077 CH2         51.7797    44.8361    35.6159 CH2           1 RES     
    4078 CH2         51.8877    44.7060    37.1466 CH2           1 RES     
    4079 CH2         50.6551    45.3523    37.8057 CH2           1 RES     
    4080 CH2         50.7631    45.2221    39.3364 CH2           1 RES     
    4081 CH2         49.5305    45.8684    39.9956 CH2           1 RES     
    4082 CH2         49.6385    45.7383    41.5262 CH2           1 RES     
    4083 CH2         48.4059    46.3846    42.1854 CH2           1 RES     
    4084 CH2         48.5139    46.2544    43.7161 CH2           1 RES     
    4085 CH2         47.2813    46.9008    44.3752 CH2           1 RES     
    4086 CH2         47.3893    46.7706    45.9059 CH2           1 RES     
    4087 OA          52.9110    44.3120    33.5205 OA            1 RES     
    4088 H           52.4511    43.5374    33.1886 H             1 RES     
    4089 CH3         40.1649    40.7576    46.5351 CH3           1 RES     
    4090 CH2         47.4232    38.8141    34.9567 CH2           1 RES     
    4091 CH2         46.0956    39.2320    35.6159 CH2           1 RES     
    4092 CH2         46.2250    39.1230    37.1466 CH2           1 RES     
    4093 CH2         44.8974    39.5409    37.8057 CH2           1 RES     
    4094 CH2         45.0268    39.4319    39.3364 CH2           1 RES     
    4095 CH2         43.6992    39.8498    39.9956 CH2           1 RES     
    4096 CH2         43.8286    39.7409    41.5262 CH2           1 RES     
    4097 CH2         42.5010    40.1588    42.1854 CH2           1 RES     
    4098 CH2         42.6304    40.0498    43.7161 CH2           1 RES     
    4099 CH2         41.3028    40.4677    44.3752 CH2           1 RES     
    4100 CH2         41.4321    40.3587    45.9059 CH2           1 RES     
    4101 OA          47.3018    38.9164    33.5205 OA            1 RES     
    4102 H           46.9863    38.0726    33.1886 H             1 RES     
    4103 CH3         18.3041    18.8942    46.5351 CH3           1 RES     
    4104 CH2         25.5637    16.9553    34.9567 CH2           1 RES     
    4105 CH2         24.2358    17.3724    35.6159 CH2           1 RES     
    4106 CH2         24.3653    17.2635    37.1466 CH2           1 RES     
    4107 CH2         23.0374    17.6805    37.8057 CH2           1 RES     
    4108 CH2         23.1668    17.5716    39.3364 CH2           1 RES     
    4109 CH2         21.8390    17.9887    39.9956 CH2           1 RES     
    4110 CH2         21.9684    17.8798    41.5262 CH2           1 RES     
    4111 CH2         20.6406    18.2969    42.1854 CH2           1 RES     
    4112 CH2         20.7700    18.1879    43.7161 CH2           1 RES     
    4113 CH2         19.4422    18.6050    44.3752 CH2           1 RES     
    4114 CH2         19.5716    18.4961    45.9059 CH2           1 RES     
    4115 OA          25.4422    17.0575    33.5205 OA            1 RES     
    4116 H           25.1272    16.2135    33.1886 H             1 RES     
    4117 CH3         23.2616    21.5994    46.5351 CH3           1 RES     
    4118 CH2         30.7178    22.5297    34.9567 CH2           1 RES     
    4119 CH2         29.3305    22.4174    35.6159 CH2           1 RES     
    4120 CH2         29.4914    22.3651    37.1466 CH2           1 RES     
    4121 CH2         28.1041    22.2528    37.8057 CH2           1 RES     
    4122 CH2         28.2650    22.2005    39.3364 CH2           1 RES     
    4123 CH2         26.8778    22.0881    39.9956 CH2           1 RES     
    4124 CH2         27.0386    22.0358    41.5262 CH2           1 RES     
    4125 CH2         25.6514    21.9235    42.1854 CH2           1 RES     
    4126 CH2         25.8122    21.8712    43.7161 CH2           1 RES     
    4127 CH2         24.4250    21.7589    44.3752 CH2           1 RES     
    4128 CH2         24.5858    21.7066    45.9059 CH2           1 RES     
    4129 OA          30.5669    22.5788    33.5205 OA            1 RES     
    4130 H           30.5920    21.6783    33.1886 H             1 RES     
    4131 CH3         23.5743    12.8684    46.5351 CH3           1 RES     
    4132 CH2         30.9670    11.5234    34.9567 CH2           1 RES     
    4133 CH2         29.6097    11.8316    35.6159 CH2           1 RES     
    4134 CH2         29.7475    11.7336    37.1466 CH2           1 RES     
    4135 CH2         28.3903    12.0418    37.8057 CH2           1 RES     
    4136 CH2         28.5281    11.9437    39.3364 CH2           1 RES     
    4137 CH2         27.1709    12.2519    39.9956 CH2           1 RES     
    4138 CH2         27.3087    12.1539    41.5262 CH2           1 RES     
    4139 CH2         25.9515    12.4621    42.1854 CH2           1 RES     
    4140 CH2         26.0893    12.3640    43.7161 CH2           1 RES     
    4141 CH2         24.7320    12.6722    44.3752 CH2           1 RES     
    4142 CH2         24.8699    12.5742    45.9059 CH2           1 RES     
    4143 OA          30.8376    11.6154    33.5205 OA            1 RES     
    4144 H           30.5920    10.7488    33.1886 H             1 RES     
    4145 CH3         24.5440    44.2344    34.1571 CH3           1 RES     
    4146 CH2         24.0159    43.3451    35.2017 CH2           1 RES     
    4147 CH2         23.3330    44.1863    36.2960 CH2           1 RES     
    4148 CH2         22.7797    43.2546    37.3904 CH2           1 RES     
    4149 CH2         22.0968    44.0958    38.4847 CH2           1 RES     
    4150 CH2         21.5435    43.1642    39.5790 CH2           1 RES     
    4151 CH2         20.8606    44.0054    40.6733 CH2           1 RES     
    4152 CH2         20.3073    43.0737    41.7676 CH2           1 RES     
    4153 CH2         19.6244    43.9149    42.8620 CH2           1 RES     
    4154 CH2         19.0711    42.9833    43.9563 CH2           1 RES     
    4155 CH2         18.3882    43.8245    45.0506 CH2           1 RES     
    4156 O           24.4272    45.4288    34.1725 O             1 RES     
    4157 C           24.5251    44.2027    34.1770 C             1 RES     
    4158 OA          25.1272    43.5374    33.1886 OA            1 RES     
    4159 H           25.4328    44.1784    32.5426 H             1 RES     
    4160 CH3         30.3269    28.0123    34.1571 CH3           1 RES     
    4161 CH2         29.4937    27.3995    35.2017 CH2           1 RES     
    4162 CH2         29.1930    28.4405    36.2960 CH2           1 RES     
    4163 CH2         28.3202    27.7984    37.3904 CH2           1 RES     
    4164 CH2         28.0195    28.8394    38.4847 CH2           1 RES     
    4165 CH2         27.1466    28.1974    39.5790 CH2           1 RES     
    4166 CH2         26.8459    29.2384    40.6733 CH2           1 RES     
    4167 CH2         25.9731    28.5963    41.7676 CH2           1 RES     
    4168 CH2         25.6724    29.6373    42.8620 CH2           1 RES     
    4169 CH2         24.7995    28.9953    43.9563 CH2           1 RES     
    4170 CH2         24.4988    30.0362    45.0506 CH2           1 RES     
    4171 O           30.6853    29.1577    34.1725 O             1 RES     
    4172 C           30.2971    27.9906    34.1770 C             1 RES     
    4173 OA          30.5920    27.1431    33.1886 OA            1 RES     
    4174 H           31.1234    27.6141    32.5426 H             1 RES     
    4175 CH3         19.4092    38.9454    34.1571 CH3           1 RES     
    4176 CH2         18.5678    38.3440    35.2017 CH2           1 RES     
    4177 CH2         18.2813    39.3890    36.2960 CH2           1 RES     
    4178 CH2         17.3998    38.7590    37.3904 CH2           1 RES     
    4179 CH2         17.1134    39.8040    38.4847 CH2           1 RES     
    4180 CH2         16.2318    39.1740    39.5790 CH2           1 RES     
    4181 CH2         15.9454    40.2190    40.6733 CH2           1 RES     
    4182 CH2         15.0638    39.5889    41.7676 CH2           1 RES     
    4183 CH2         14.7774    40.6339    42.8620 CH2           1 RES     
    4184 CH2         13.8959    40.0039    43.9563 CH2           1 RES     
    4185 CH2         13.6094    41.0489    45.0506 CH2           1 RES     
    4186 O           19.7833    40.0858    34.1725 O             1 RES     
    4187 C           19.3792    38.9241    34.1770 C             1 RES     
    4188 OA          19.6625    38.0726    33.1886 OA            1 RES     
    4189 H           20.2002    38.5364    32.5426 H             1 RES     
    4190 CH3         35.6633    27.9623    34.1571 CH3           1 RES     
    4191 CH2         34.9323    27.2305    35.2017 CH2           1 RES     
    4192 CH2         34.4777    28.2141    36.2960 CH2           1 RES     
    4193 CH2         33.7120    27.4475    37.3904 CH2           1 RES     
    4194 CH2         33.2573    28.4310    38.4847 CH2           1 RES     
    4195 CH2         32.4916    27.6644    39.5790 CH2           1 RES     
    4196 CH2         32.0370    28.6480    40.6733 CH2           1 RES     
    4197 CH2         31.2712    27.8813    41.7676 CH2           1 RES     
    4198 CH2         30.8166    28.8649    42.8620 CH2           1 RES     
    4199 CH2         30.0509    28.0983    43.9563 CH2           1 RES     
    4200 CH2         29.5962    29.0818    45.0506 CH2           1 RES     
    4201 O           35.8444    29.1486    34.1725 O             1 RES     
    4202 C           35.6371    27.9362    34.1770 C             1 RES     
    4203 OA          36.0568    27.1431    33.1886 OA            1 RES     
    4204 H           36.5108    27.6891    32.5426 H             1 RES     
    4205 CH3         35.6583     6.1008    34.1571 CH3           1 RES     
    4206 CH2         34.9318     5.3646    35.2017 CH2           1 RES     
    4207 CH2         34.4712     6.3453    36.2960 CH2           1 RES     
    4208 CH2         33.7101     5.5741    37.3904 CH2           1 RES     
    4209 CH2         33.2495     6.5548    38.4847 CH2           1 RES     
    4210 CH2         32.4885     5.7835    39.5790 CH2           1 RES     
    4211 CH2         32.0279     6.7643    40.6733 CH2           1 RES     
    4212 CH2         31.2668     5.9930    41.7676 CH2           1 RES     
    4213 CH2         30.8062     6.9738    42.8620 CH2           1 RES     
    4214 CH2         30.0451     6.2025    43.9563 CH2           1 RES     
    4215 CH2         29.5845     7.1833    45.0506 CH2           1 RES     
    4216 O           35.8322     7.2882    34.1725 O             1 RES     
    4217 C           35.6323     6.0746    34.1770 C             1 RES     
    4218 OA          36.0568     5.2840    33.1886 OA            1 RES     
    4219 H           36.5075     5.8327    32.5426 H             1 RES     
    4220 CH3         14.0715     6.1840    34.1571 CH3           1 RES     
    4221 CH2         13.1529     5.7087    35.2017 CH2           1 RES     
    4222 CH2         13.0184     6.7839    36.2960 CH2           1 RES     
    4223 CH2         12.0560     6.2860    37.3904 CH2           1 RES     
    4224 CH2         11.9215     7.3611    38.4847 CH2           1 RES     
    4225 CH2         10.9591     6.8632    39.5790 CH2           1 RES     
    4226 CH2         10.8246     7.9384    40.6733 CH2           1 RES     
    4227 CH2          9.8623     7.4405    41.7676 CH2           1 RES     
    4228 CH2          9.7277     8.5156    42.8620 CH2           1 RES     
    4229 CH2          8.7654     8.0177    43.9563 CH2           1 RES     
    4230 CH2          8.6309     9.0929    45.0506 CH2           1 RES     
    4231 O           14.6043     7.2594    34.1725 O             1 RES     
    4232 C           14.0387     6.1671    34.1770 C             1 RES     
    4233 OA          14.1977     5.2840    33.1886 OA            1 RES     
    4234 H           14.7961     5.6663    32.5426 H             1 RES     
    4235 CH3         13.9493    11.6230    34.1571 CH3           1 RES     
    4236 CH2         13.1045    11.0263    35.2017 CH2           1 RES     
    4237 CH2         12.8239    12.0728    36.2960 CH2           1 RES     
    4238 CH2         11.9389    11.4477    37.3904 CH2           1 RES     
    4239 CH2         11.6583    12.4943    38.4847 CH2           1 RES     
    4240 CH2         10.7732    11.8692    39.5790 CH2           1 RES     
    4241 CH2         10.4926    12.9157    40.6733 CH2           1 RES     
    4242 CH2          9.6076    12.2906    41.7676 CH2           1 RES     
    4243 CH2          9.3270    13.3372    42.8620 CH2           1 RES     
    4244 CH2          8.4419    12.7121    43.9563 CH2           1 RES     
    4245 CH2          8.1613    13.7586    45.0506 CH2           1 RES     
    4246 O           14.3297    12.7612    34.1725 O             1 RES     
    4247 C           13.9191    11.6018    34.1770 C             1 RES     
    4248 OA          14.1977    10.7488    33.1886 OA            1 RES     
    4249 H           14.7380    11.2095    32.5426 H             1 RES     
    4250 CH3         51.8795    22.3849    34.1571 CH3           1 RES     
    4251 CH2         51.3367    21.5044    35.2017 CH2           1 RES     
    4252 CH2         50.6678    22.3569    36.2960 CH2           1 RES     
    4253 CH2         50.0992    21.4345    37.3904 CH2           1 RES     
    4254 CH2         49.4303    22.2870    38.4847 CH2           1 RES     
    4255 CH2         48.8617    21.3646    39.5790 CH2           1 RES     
    4256 CH2         48.1928    22.2171    40.6733 CH2           1 RES     
    4257 CH2         47.6241    21.2947    41.7676 CH2           1 RES     
    4258 CH2         46.9552    22.1471    42.8620 CH2           1 RES     
    4259 CH2         46.3866    21.2248    43.9563 CH2           1 RES     
    4260 CH2         45.7177    22.0772    45.0506 CH2           1 RES     
    4261 O           51.7826    23.5811    34.1725 O             1 RES     
    4262 C           51.8600    22.3535    34.1770 C             1 RES     
    4263 OA          52.4511    21.6783    33.1886 OA            1 RES     
    4264 H           52.7672    22.3142    32.5426 H             1 RES     
    4265 CH3         46.1928    16.6566    34.1571 CH3           1 RES     
    4266 CH2         46.0167    15.6374    35.2017 CH2           1 RES     
    4267 CH2         45.0786    16.1797    36.2960 CH2           1 RES     
    4268 CH2         44.8941    15.1120    37.3904 CH2           1 RES     
    4269 CH2         43.9560    15.6543    38.4847 CH2           1 RES     
    4270 CH2         43.7715    14.5866    39.5790 CH2           1 RES     
    4271 CH2         42.8334    15.1288    40.6733 CH2           1 RES     
    4272 CH2         42.6489    14.0611    41.7676 CH2           1 RES     
    4273 CH2         41.7108    14.6034    42.8620 CH2           1 RES     
    4274 CH2         41.5262    13.5357    43.9563 CH2           1 RES     
    4275 CH2         40.5881    14.0779    45.0506 CH2           1 RES     
    4276 O           45.6577    17.7308    34.1725 O             1 RES     
    4277 C           46.1864    16.6203    34.1770 C             1 RES     
    4278 OA          46.9863    16.2135    33.1886 OA            1 RES     
    4279 H           47.0431    16.9214    32.5426 H             1 RES     
    4280 CH3         51.8645     5.9782    34.1571 CH3           1 RES     
    4281 CH2         51.3407     5.0864    35.2017 CH2           1 RES     
    4282 CH2         50.6537     5.9243    36.2960 CH2           1 RES     
    4283 CH2         50.1049     4.9900    37.3904 CH2           1 RES     
    4284 CH2         49.4180     5.8280    38.4847 CH2           1 RES     
    4285 CH2         48.8692     4.8937    39.5790 CH2           1 RES     
    4286 CH2         48.1822     5.7316    40.6733 CH2           1 RES     
    4287 CH2         47.6334     4.7973    41.7676 CH2           1 RES     
    4288 CH2         46.9465     5.6353    42.8620 CH2           1 RES     
    4289 CH2         46.3977     4.7010    43.9563 CH2           1 RES     
    4290 CH2         45.7107     5.5389    45.0506 CH2           1 RES     
    4291 O           51.7421     7.1720    34.1725 O             1 RES     
    4292 C           51.8458     5.9464    34.1770 C             1 RES     
    4293 OA          52.4511     5.2840    33.1886 OA            1 RES     
    4294 H           52.7535     5.9265    32.5426 H             1 RES     
    4295 CH3         24.7834    22.5196    34.1571 CH3           1 RES     
    4296 CH2         24.0100    21.8329    35.2017 CH2           1 RES     
    4297 CH2         23.6151    22.8418    36.2960 CH2           1 RES     
    4298 CH2         22.8048    22.1224    37.3904 CH2           1 RES     
    4299 CH2         22.4099    23.1314    38.4847 CH2           1 RES     
    4300 CH2         21.5996    22.4120    39.5790 CH2           1 RES     
    4301 CH2         21.2047    23.4210    40.6733 CH2           1 RES     
    4302 CH2         20.3944    22.7016    41.7676 CH2           1 RES     
    4303 CH2         19.9995    23.7106    42.8620 CH2           1 RES     
    4304 CH2         19.1892    22.9911    43.9563 CH2           1 RES     
    4305 CH2         18.7943    24.0001    45.0506 CH2           1 RES     
    4306 O           25.0352    23.6930    34.1725 O             1 RES     
    4307 C           24.7558    22.4952    34.1770 C             1 RES     
    4308 OA          25.1272    21.6783    33.1886 OA            1 RES     
    4309 H           25.6131    22.1962    32.5426 H             1 RES     
    4310 CH3         19.2466    33.4159    34.1571 CH3           1 RES     
    4311 CH2         18.5360    32.6644    35.2017 CH2           1 RES     
    4312 CH2         18.0546    33.6351    36.2960 CH2           1 RES     
    4313 CH2         17.3102    32.8478    37.3904 CH2           1 RES     
    4314 CH2         16.8287    33.8185    38.4847 CH2           1 RES     
    4315 CH2         16.0843    33.0311    39.5790 CH2           1 RES     
    4316 CH2         15.6029    34.0018    40.6733 CH2           1 RES     
    4317 CH2         14.8585    33.2145    41.7676 CH2           1 RES     
    4318 CH2         14.3770    34.1852    42.8620 CH2           1 RES     
    4319 CH2         13.6326    33.3979    43.9563 CH2           1 RES     
    4320 CH2         13.1512    34.3686    45.0506 CH2           1 RES     
    4321 O           19.3951    34.6068    34.1725 O             1 RES     
    4322 C           19.2212    33.3892    34.1770 C             1 RES     
    4323 OA          19.6625    32.6078    33.1886 OA            1 RES     
    4324 H           20.1014    33.1661    32.5426 H             1 RES     
    4325 CH3         18.8790    43.9979    34.1571 CH3           1 RES     
    4326 CH2         18.6804    42.9828    35.2017 CH2           1 RES     
    4327 CH2         17.7545    43.5456    36.2960 CH2           1 RES     
    4328 CH2         17.5465    42.4823    37.3904 CH2           1 RES     
    4329 CH2         16.6206    43.0451    38.4847 CH2           1 RES     
    4330 CH2         16.4125    41.9817    39.5790 CH2           1 RES     
    4331 CH2         15.4866    42.5445    40.6733 CH2           1 RES     
    4332 CH2         15.2786    41.4811    41.7676 CH2           1 RES     
    4333 CH2         14.3527    42.0440    42.8620 CH2           1 RES     
    4334 CH2         14.1447    40.9806    43.9563 CH2           1 RES     
    4335 CH2         13.2188    41.5434    45.0506 CH2           1 RES     
    4336 O           18.3676    45.0836    34.1725 O             1 RES     
    4337 C           18.8718    43.9617    34.1770 C             1 RES     
    4338 OA          19.6625    43.5374    33.1886 OA            1 RES     
    4339 H           19.7348    44.2438    32.5426 H             1 RES     
    4340 CH3         35.4415    11.4176    34.1571 CH3           1 RES     
    4341 CH2         34.9557    10.5044    35.2017 CH2           1 RES     
    4342 CH2         34.2340    11.3126    36.2960 CH2           1 RES     
    4343 CH2         33.7251    10.3560    37.3904 CH2           1 RES     
    4344 CH2         33.0034    11.1642    38.4847 CH2           1 RES     
    4345 CH2         32.4946    10.2076    39.5790 CH2           1 RES     
    4346 CH2         31.7728    11.0158    40.6733 CH2           1 RES     
    4347 CH2         31.2640    10.0592    41.7676 CH2           1 RES     
    4348 CH2         30.5423    10.8674    42.8620 CH2           1 RES     
    4349 CH2         30.0334     9.9108    43.9563 CH2           1 RES     
    4350 CH2         29.3117    10.7190    45.0506 CH2           1 RES     
    4351 O           35.2687    12.6052    34.1725 O             1 RES     
    4352 C           35.4240    11.3850    34.1770 C             1 RES     
    4353 OA          36.0568    10.7488    33.1886 OA            1 RES     
    4354 H           36.3318    11.4034    32.5426 H             1 RES     
    4355 CH3         41.2570     6.1534    34.1571 CH3           1 RES     
    4356 CH2         40.4234     5.5411    35.2017 CH2           1 RES     
    4357 CH2         40.1234     6.5823    36.2960 CH2           1 RES     
    4358 CH2         39.2501     5.9409    37.3904 CH2           1 RES     
    4359 CH2         38.9501     6.9821    38.4847 CH2           1 RES     
    4360 CH2         38.0769     6.3406    39.5790 CH2           1 RES     
    4361 CH2         37.7768     7.3818    40.6733 CH2           1 RES     
    4362 CH2         36.9036     6.7403    41.7676 CH2           1 RES     
    4363 CH2         36.6036     7.7815    42.8620 CH2           1 RES     
    4364 CH2         35.7303     7.1401    43.9563 CH2           1 RES     
    4365 CH2         35.4303     8.1812    45.0506 CH2           1 RES     
    4366 O           41.6162     7.2986    34.1725 O             1 RES     
    4367 C           41.2272     6.1317    34.1770 C             1 RES     
    4368 OA          41.5215     5.2840    33.1886 OA            1 RES     
    4369 H           42.0532     5.7547    32.5426 H             1 RES     
    4370 CH3         35.6674    38.8938    34.1571 CH3           1 RES     
    4371 CH2         34.9328    38.1657    35.2017 CH2           1 RES     
    4372 CH2         34.4831    39.1515    36.2960 CH2           1 RES     
    4373 CH2         33.7135    38.3887    37.3904 CH2           1 RES     
    4374 CH2         33.2638    39.3745    38.4847 CH2           1 RES     
    4375 CH2         32.4942    38.6118    39.5790 CH2           1 RES     
    4376 CH2         32.0446    39.5976    40.6733 CH2           1 RES     
    4377 CH2         31.2750    38.8348    41.7676 CH2           1 RES     
    4378 CH2         30.8253    39.8207    42.8620 CH2           1 RES     
    4379 CH2         30.0557    39.0579    43.9563 CH2           1 RES     
    4380 CH2         29.6060    40.0437    45.0506 CH2           1 RES     
    4381 O           35.8544    40.0792    34.1725 O             1 RES     
    4382 C           35.6411    38.8679    34.1770 C             1 RES     
    4383 OA          36.0568    38.0726    33.1886 OA            1 RES     
    4384 H           36.5135    38.6163    32.5426 H             1 RES     
    4385 OW          22.2430    29.9460    86.4210 OW            1 RES     
    4386 HW1         22.6700    30.6870    86.9370 HW1           1 RES     
    4387 HW2         21.2510    30.0740    86.4110 HW2           1 RES     
    4388 OW          17.1870     8.7360   109.7060 OW            1 RES     
    4389 HW1         17.9290     8.2700   109.2260 HW1           1 RES     
    4390 HW2         17.2460     8.5390   110.6850 HW2           1 RES     
    4391 OW          16.9740    20.5270   106.7080 OW            1 RES     
    4392 HW1         16.5150    20.3280   107.5730 HW1           1 RES     
    4393 HW2         17.2830    21.4780   106.7040 HW2           1 RES     
    4394 OW           5.6430    16.9570    97.1820 OW            1 RES     
    4395 HW1          6.0680    17.8610    97.1660 HW1           1 RES     
    4396 HW2          6.3420    16.2630    97.3580 HW2           1 RES     
    4397 OW          12.4670    37.1900    95.9090 OW            1 RES     
    4398 HW1         12.9040    38.0810    96.0260 HW1           1 RES     
    4399 HW2         11.7400    37.2620    95.2260 HW2           1 RES     
    4400 OW          22.7180    35.5570   106.8850 OW            1 RES     
    4401 HW1         22.2200    35.0440   107.5840 HW1           1 RES     
    4402 HW2         22.3560    35.3280   105.9810 HW2           1 RES     
    4403 OW          61.4200     6.4680   105.2120 OW            1 RES     
    4404 HW1         61.7390     5.8900   104.4620 HW1           1 RES     
    4405 HW2         61.9590     7.3100   105.2370 HW2           1 RES     
    4406 OW          44.0770    48.7910    89.5510 OW            1 RES     
    4407 HW1         44.7250    48.0340    89.4860 HW1           1 RES     
    4408 HW2         43.3110    48.6290    88.9290 HW2           1 RES     
    4409 OW          29.6260     8.3000   106.8960 OW            1 RES     
    4410 HW1         30.5550     7.9410   106.8050 HW1           1 RES     
    4411 HW2         29.6650     9.2770   107.1060 HW2           1 RES     
    4412 OW           1.6950    45.4860    98.7320 OW            1 RES     
    4413 HW1          1.3040    44.9510    97.9850 HW1           1 RES     
    4414 HW2          1.1520    45.3490    99.5610 HW2           1 RES     
    4415 OW          20.1450    26.3490    97.0040 OW            1 RES     
    4416 HW1         20.9370    25.7390    96.9960 HW1           1 RES     
    4417 HW2         19.3340    25.8480    96.7000 HW2           1 RES     
    4418 OW          57.8080    10.2970   105.6180 OW            1 RES     
    4419 HW1         57.3800    11.1850   105.7810 HW1           1 RES     
    4420 HW2         58.5630    10.1680   106.2610 HW2           1 RES     
    4421 OW          14.3610    28.3530   105.5020 OW            1 RES     
    4422 HW1         14.8310    27.5180   105.7840 HW1           1 RES     
    4423 HW2         14.2130    28.3360   104.5130 HW2           1 RES     
    4424 OW          34.3930     5.6250    92.7830 OW            1 RES     
    4425 HW1         34.6040     4.6480    92.7710 HW1           1 RES     
    4426 HW2         35.1430     6.1340    92.3610 HW2           1 RES     
    4427 OW          49.6400    44.2950    97.7810 OW            1 RES     
    4428 HW1         50.6330    44.3600    97.6900 HW1           1 RES     
    4429 HW2         49.2130    45.0980    97.3640 HW2           1 RES     
    4430 OW          49.5670    44.8270    94.9180 OW            1 RES     
    4431 HW1         50.0070    43.9300    94.9040 HW1           1 RES     
    4432 HW2         50.2670    45.5410    94.9500 HW2           1 RES     
    4433 OW          53.0530    36.5850    94.2120 OW            1 RES     
    4434 HW1         54.0200    36.8350    94.2150 HW1           1 RES     
    4435 HW2         52.9650    35.5890    94.2020 HW2           1 RES     
    4436 OW          26.9850    24.7290    86.1580 OW            1 RES     
    4437 HW1         26.1160    25.1250    86.4520 HW1           1 RES     
    4438 HW2         26.9570    23.7360    86.2800 HW2           1 RES     
    4439 OW          16.3930     0.7650   110.7170 OW            1 RES     
    4440 HW1         16.1940     1.7020   111.0040 HW1           1 RES     
    4441 HW2         17.3820     0.6170   110.7280 HW2           1 RES     
    4442 OW          25.5070    39.0170   105.8230 OW            1 RES     
    4443 HW1         24.5620    38.8980   106.1260 HW1           1 RES     
    4444 HW2         25.6100    38.6480   104.8990 HW2           1 RES     
    4445 OW          18.1730    35.2100    90.6260 OW            1 RES     
    4446 HW1         18.0810    34.2150    90.6490 HW1           1 RES     
    4447 HW2         19.1410    35.4570    90.6580 HW2           1 RES     
    4448 OW          28.4200    46.1750    97.7980 OW            1 RES     
    4449 HW1         28.1470    47.0080    97.3190 HW1           1 RES     
    4450 HW2         29.3370    45.9060    97.5020 HW2           1 RES     
    4451 OW          47.4000    47.5710    93.9020 OW            1 RES     
    4452 HW1         46.6330    47.6380    94.5390 HW1           1 RES     
    4453 HW2         47.0620    47.6520    92.9640 HW2           1 RES     
    4454 OW          30.1000    35.4510    89.2810 OW            1 RES     
    4455 HW1         30.0320    34.4960    88.9960 HW1           1 RES     
    4456 HW2         30.5920    35.9740    88.5840 HW2           1 RES     
    4457 OW          46.3850    28.0180   111.1540 OW            1 RES     
    4458 HW1         46.5740    27.7940   110.1990 HW1           1 RES     
    4459 HW2         45.4110    28.2180   111.2640 HW2           1 RES     
    4460 OW          18.5500    37.2510    98.5970 OW            1 RES     
    4461 HW1         18.3120    37.4350    97.6440 HW1           1 RES     
    4462 HW2         18.9220    38.0810    99.0140 HW2           1 RES     
    4463 OW          25.2300     0.0040    95.0240 OW            1 RES     
    4464 HW1         25.9890     0.2460    95.6270 HW1           1 RES     
    4465 HW2         25.0830     0.7390    94.3610 HW2           1 RES     
    4466 OW          42.2620     8.1050   109.5480 OW            1 RES     
    4467 HW1         42.3720     7.1230   109.6910 HW1           1 RES     
    4468 HW2         41.2910     8.3210   109.4450 HW2           1 RES     
    4469 OW           3.7880    47.6120   103.7120 OW            1 RES     
    4470 HW1          4.6820    47.9920   103.9450 HW1           1 RES     
    4471 HW2          3.6470    46.7590   104.2150 HW2           1 RES     
    4472 OW          39.3550    11.2020   101.8570 OW            1 RES     
    4473 HW1         40.0210    10.4960   101.6180 HW1           1 RES     
    4474 HW2         39.8340    12.0080   102.2070 HW2           1 RES     
    4475 OW          13.0730    37.2280   103.0310 OW            1 RES     
    4476 HW1         12.2400    37.7540   103.1980 HW1           1 RES     
    4477 HW2         12.8890    36.2560   103.1790 HW2           1 RES     
    4478 OW          19.0380     2.2260    87.6330 OW            1 RES     
    4479 HW1         18.3500     1.5070    87.5400 HW1           1 RES     
    4480 HW2         18.6530     2.9920    88.1480 HW2           1 RES     
    4481 OW          34.8720     9.6650    87.8210 OW            1 RES     
    4482 HW1         35.4210     9.2960    88.5700 HW1           1 RES     
    4483 HW2         34.0920    10.1670    88.1950 HW2           1 RES     
    4484 OW          47.2260    23.5160   108.2920 OW            1 RES     
    4485 HW1         46.4850    24.1730   108.1640 HW1           1 RES     
    4486 HW2         48.0590    23.9990   108.5640 HW2           1 RES     
    4487 OW          52.1960    30.8200    86.9230 OW            1 RES     
    4488 HW1         51.2460    30.5120    86.9470 HW1           1 RES     
    4489 HW2         52.2890    31.6570    87.4630 HW2           1 RES     
    4490 OW          23.5100    20.1420    93.5720 OW            1 RES     
    4491 HW1         22.9920    19.2900    93.5070 HW1           1 RES     
    4492 HW2         24.4860    19.9470    93.4720 HW2           1 RES     
    4493 OW          43.3410     7.1200   101.3700 OW            1 RES     
    4494 HW1         43.2350     7.2640   100.3860 HW1           1 RES     
    4495 HW2         42.4400     7.0120   101.7900 HW2           1 RES     
    4496 OW          48.7070     7.9930    87.8350 OW            1 RES     
    4497 HW1         48.7370     8.4070    88.7440 HW1           1 RES     
    4498 HW2         48.0910     7.2050    87.8470 HW2           1 RES     
    4499 OW          20.0530    46.0250   100.7190 OW            1 RES     
    4500 HW1         20.6420    45.2380   100.8990 HW1           1 RES     
    4501 HW2         19.1040    45.7190   100.6350 HW2           1 RES     
    4502 OW           4.9060    32.6400   103.3940 OW            1 RES     
    4503 HW1          5.6210    32.3910   102.7420 HW1           1 RES     
    4504 HW2          4.7780    31.8970   104.0510 HW2           1 RES     
    4505 OW           8.7220    17.9170   100.0000 OW            1 RES     
    4506 HW1          8.6110    17.2980   100.7770 HW1           1 RES     
    4507 HW2          9.6080    17.7530    99.5660 HW2           1 RES     
    4508 OW           4.9140    18.2900   109.5940 OW            1 RES     
    4509 HW1          4.3380    18.7840   108.9450 HW1           1 RES     
    4510 HW2          4.9340    17.3200   109.3530 HW2           1 RES     
    4511 OW          38.2550     3.4280    86.3410 OW            1 RES     
    4512 HW1         37.9760     2.6520    86.9070 HW1           1 RES     
    4513 HW2         37.7070     4.2300    86.5800 HW2           1 RES     
    4514 OW          27.0440    44.6730   105.1020 OW            1 RES     
    4515 HW1         27.5470    45.2180   105.7720 HW1           1 RES     
    4516 HW2         26.3870    45.2560   104.6230 HW2           1 RES     
    4517 OW           3.1100     5.1220   107.5120 OW            1 RES     
    4518 HW1          2.1770     5.1900   107.8630 HW1           1 RES     
    4519 HW2          3.5340     4.2830   107.8530 HW2           1 RES     
    4520 OW          47.0030     9.3410   108.6070 OW            1 RES     
    4521 HW1         46.2530     9.2090   107.9590 HW1           1 RES     
    4522 HW2         46.6390     9.6750   109.4760 HW2           1 RES     
    4523 OW          57.6020    33.2120   110.2650 OW            1 RES     
    4524 HW1         56.7300    33.4190   109.8250 HW1           1 RES     
    4525 HW2         57.9140    32.3060   109.9780 HW2           1 RES     
    4526 OW          18.1670    43.8090   110.3830 OW            1 RES     
    4527 HW1         17.9080    43.4070   111.2600 HW1           1 RES     
    4528 HW2         18.7030    43.1480   109.8570 HW2           1 RES     
    4529 OW          44.9920     0.7030    93.9300 OW            1 RES     
    4530 HW1         45.5210     1.0960    94.6810 HW1           1 RES     
    4531 HW2         44.8640     1.3920    93.2160 HW2           1 RES     
    4532 OW          23.2080    35.3170   110.0230 OW            1 RES     
    4533 HW1         22.6480    36.1220   109.8270 HW1           1 RES     
    4534 HW2         23.7180    35.0580   109.2020 HW2           1 RES     
    4535 OW          25.9560    24.3850    99.2160 OW            1 RES     
    4536 HW1         25.3730    23.5740    99.1690 HW1           1 RES     
    4537 HW2         26.8580    24.1270    99.5620 HW2           1 RES     
    4538 OW          38.7080    48.7300    99.5290 OW            1 RES     
    4539 HW1         38.0020    48.0220    99.5370 HW1           1 RES     
    4540 HW2         39.6110    48.3010    99.5560 HW2           1 RES     
    4541 OW          48.2880    35.9530    88.1870 OW            1 RES     
    4542 HW1         48.5930    35.1750    87.6380 HW1           1 RES     
    4543 HW2         49.0600    36.5660    88.3550 HW2           1 RES     
    4544 OW          36.7760    10.7830   110.7780 OW            1 RES     
    4545 HW1         36.7510     9.8010   110.9610 HW1           1 RES     
    4546 HW2         37.7010    11.1290   110.9340 HW2           1 RES     
    4547 OW          19.0960    33.1660   104.3010 OW            1 RES     
    4548 HW1         19.9880    33.6140   104.2600 HW1           1 RES     
    4549 HW2         18.3740    33.8530   104.2140 HW2           1 RES     
    4550 OW          31.1610    12.3720    99.4340 OW            1 RES     
    4551 HW1         31.7010    12.2860   100.2700 HW1           1 RES     
    4552 HW2         31.5010    11.7270    98.7480 HW2           1 RES     
    4553 OW          60.4930    45.9740    89.9780 OW            1 RES     
    4554 HW1         59.9780    45.1260    89.8570 HW1           1 RES     
    4555 HW2         61.4610    45.8060    89.7900 HW2           1 RES     
    4556 OW           8.9950    26.6890   108.2040 OW            1 RES     
    4557 HW1          8.2750    26.1930   108.6880 HW1           1 RES     
    4558 HW2          9.5090    26.0520   107.6280 HW2           1 RES     
    4559 OW          16.9330    13.1540    92.7900 OW            1 RES     
    4560 HW1         17.0430    13.7750    93.5660 HW1           1 RES     
    4561 HW2         16.5640    12.2810    93.1110 HW2           1 RES     
    4562 OW          33.0680    14.8510   101.3490 OW            1 RES     
    4563 HW1         33.1070    14.1610   100.6260 HW1           1 RES     
    4564 HW2         33.8800    14.7750   101.9280 HW2           1 RES     
    4565 OW          59.5190     8.3300   101.6340 OW            1 RES     
    4566 HW1         59.4300     9.2960   101.8770 HW1           1 RES     
    4567 HW2         60.4540     8.1480   101.3290 HW2           1 RES     
    4568 OW          12.2440    41.6840    94.9010 OW            1 RES     
    4569 HW1         11.6300    41.5960    95.6850 HW1           1 RES     
    4570 HW2         11.8430    42.3090    94.2310 HW2           1 RES     
    4571 OW          16.7830    40.9760    96.0980 OW            1 RES     
    4572 HW1         17.6070    40.5780    95.6970 HW1           1 RES     
    4573 HW2         16.0720    40.2750    96.1650 HW2           1 RES     
    4574 OW          52.1760    20.1420   110.3450 OW            1 RES     
    4575 HW1         52.6230    20.6070   111.1090 HW1           1 RES     
    4576 HW2         52.0540    19.1750   110.5680 HW2           1 RES     
    4577 OW          10.2210    32.3600    94.6680 OW            1 RES     
    4578 HW1          9.3030    31.9880    94.7980 HW1           1 RES     
    4579 HW2         10.8960    31.7200    95.0340 HW2           1 RES     
    4580 OW           9.6180    32.1900   101.2230 OW            1 RES     
    4581 HW1         10.2140    32.9570   100.9900 HW1           1 RES     
    4582 HW2         10.1640    31.3560   101.3040 HW2           1 RES     
    4583 OW          46.7380     3.5400    98.0160 OW            1 RES     
    4584 HW1         46.2030     4.3810    98.0820 HW1           1 RES     
    4585 HW2         47.7110     3.7670    97.9580 HW2           1 RES     
    4586 OW          38.9970    48.2620    94.8890 OW            1 RES     
    4587 HW1         38.6950    47.5560    94.2490 HW1           1 RES     
    4588 HW2         38.7090    48.0180    95.8150 HW2           1 RES     
    4589 OW          47.5730    11.5010    89.1720 OW            1 RES     
    4590 HW1         47.5770    11.8120    90.1220 HW1           1 RES     
    4591 HW2         47.2470    12.2400    88.5810 HW2           1 RES     
    4592 OW          13.0270     5.7360   110.9400 OW            1 RES     
    4593 HW1         13.6950     6.4750   111.0270 HW1           1 RES     
    4594 HW2         12.5110     5.8510   110.0920 HW2           1 RES     
    4595 OW          19.8940    17.8950    87.7130 OW            1 RES     
    4596 HW1         20.5130    18.6750    87.8020 HW1           1 RES     
    4597 HW2         19.0040    18.2110    87.3840 HW2           1 RES     
    4598 OW          39.3500    17.8720    96.8640 OW            1 RES     
    4599 HW1         40.1290    17.9830    96.2470 HW1           1 RES     
    4600 HW2         39.6800    17.7590    97.8010 HW2           1 RES     
    4601 OW          35.1540    14.8520    96.6680 OW            1 RES     
    4602 HW1         35.7640    15.0360    97.4380 HW1           1 RES     
    4603 HW2         34.4750    15.5830    96.5980 HW2           1 RES     
    4604 OW          23.8860    13.7900   105.8610 OW            1 RES     
    4605 HW1         23.1850    13.3390   105.3090 HW1           1 RES     
    4606 HW2         23.4490    14.3390   106.5730 HW2           1 RES     
    4607 OW          37.6810     3.6340   103.4590 OW            1 RES     
    4608 HW1         37.8990     3.4250   102.5060 HW1           1 RES     
    4609 HW2         37.2250     2.8480   103.8780 HW2           1 RES     
    4610 OW          48.4860    14.7150   110.7500 OW            1 RES     
    4611 HW1         48.1160    15.5350   110.3140 HW1           1 RES     
    4612 HW2         49.3540    14.9370   111.1950 HW2           1 RES     
    4613 OW          27.8090     3.5140    90.6020 OW            1 RES     
    4614 HW1         28.6260     2.9440    90.5170 HW1           1 RES     
    4615 HW2         28.0730     4.4780    90.6120 HW2           1 RES     
    4616 OW           0.9700    47.3900   107.8560 OW            1 RES     
    4617 HW1          1.7850    46.9310   108.2070 HW1           1 RES     
    4618 HW2          0.1540    46.9860   108.2720 HW2           1 RES     
    4619 OW          21.5280    25.0370    87.1160 OW            1 RES     
    4620 HW1         20.9390    25.7810    86.8010 HW1           1 RES     
    4621 HW2         22.4840    25.2680    86.9350 HW2           1 RES     
    4622 OW           6.0320    30.9210   108.5430 OW            1 RES     
    4623 HW1          5.0750    30.6330   108.5710 HW1           1 RES     
    4624 HW2          6.5830    30.2090   108.1080 HW2           1 RES     
    4625 OW          34.3460    23.6630    89.8900 OW            1 RES     
    4626 HW1         35.3200    23.4650    89.9930 HW1           1 RES     
    4627 HW2         34.1320    24.5290    90.3420 HW2           1 RES     
    4628 OW          13.7880    43.4640    95.0290 OW            1 RES     
    4629 HW1         14.5200    43.0320    95.5550 HW1           1 RES     
    4630 HW2         13.0880    43.8120    95.6540 HW2           1 RES     
    4631 OW          57.6880    35.2610   100.0400 OW            1 RES     
    4632 HW1         57.4820    34.3510   100.3990 HW1           1 RES     
    4633 HW2         56.9150    35.8710   100.2120 HW2           1 RES     
    4634 OW          26.5970    40.6200   107.8230 OW            1 RES     
    4635 HW1         27.2310    39.8710   107.6380 HW1           1 RES     
    4636 HW2         25.6690    40.3420   107.5740 HW2           1 RES     
    4637 OW           6.5080    35.2220   107.9510 OW            1 RES     
    4638 HW1          6.3480    35.6770   107.0760 HW1           1 RES     
    4639 HW2          6.3430    34.2400   107.8530 HW2           1 RES     
    4640 OW          30.2080    40.3400    92.7210 OW            1 RES     
    4641 HW1         30.3180    39.3570    92.8610 HW1           1 RES     
    4642 HW2         29.4080    40.5080    92.1450 HW2           1 RES     
    4643 OW           3.3520    11.7500    95.4690 OW            1 RES     
    4644 HW1          2.3610    11.6190    95.4580 HW1           1 RES     
    4645 HW2          3.8060    10.8590    95.4920 HW2           1 RES     
    4646 OW          33.7000    22.2650   100.3670 OW            1 RES     
    4647 HW1         33.0200    22.9250   100.6860 HW1           1 RES     
    4648 HW2         34.5440    22.7440   100.1260 HW2           1 RES     
    4649 OW          16.9290    43.1340   103.6660 OW            1 RES     
    4650 HW1         17.8490    43.5060   103.5510 HW1           1 RES     
    4651 HW2         16.6450    43.2330   104.6200 HW2           1 RES     
    4652 OW          41.5280    31.6930    91.6070 OW            1 RES     
    4653 HW1         41.4910    32.6200    91.2360 HW1           1 RES     
    4654 HW2         42.2970    31.2010    91.2000 HW2           1 RES     
    4655 OW          39.1670    32.3710   109.3030 OW            1 RES     
    4656 HW1         38.8520    31.4840   109.6390 HW1           1 RES     
    4657 HW2         38.4160    33.0300   109.3470 HW2           1 RES     
    4658 OW          13.0270    48.8420   100.8080 OW            1 RES     
    4659 HW1         12.0540    48.7170   100.9970 HW1           1 RES     
    4660 HW2         13.5590    48.5970   101.6180 HW2           1 RES     
    4661 OW          14.1260     2.2650    89.4870 OW            1 RES     
    4662 HW1         13.7420     1.3590    89.6640 HW1           1 RES     
    4663 HW2         15.1220     2.1990    89.4230 HW2           1 RES     
    4664 OW          43.9190    21.3040    87.7000 OW            1 RES     
    4665 HW1         43.8670    22.3000    87.7630 HW1           1 RES     
    4666 HW2         44.1660    21.0420    86.7670 HW2           1 RES     
    4667 OW          39.9320    10.2840   104.7940 OW            1 RES     
    4668 HW1         40.9000    10.4110   104.5790 HW1           1 RES     
    4669 HW2         39.8100     9.4250   105.2920 HW2           1 RES     
    4670 OW          49.8140    45.7770   104.1920 OW            1 RES     
    4671 HW1         50.6810    45.8460   104.6840 HW1           1 RES     
    4672 HW2         49.8690    46.3030   103.3430 HW2           1 RES     
    4673 OW           6.9920    42.4390    98.7930 OW            1 RES     
    4674 HW1          6.2180    42.1480    99.3540 HW1           1 RES     
    4675 HW2          6.9660    41.9610    97.9140 HW2           1 RES     
    4676 OW           1.1530     8.9260    97.7500 OW            1 RES     
    4677 HW1          0.9040     7.9910    97.9990 HW1           1 RES     
    4678 HW2          2.1460     9.0330    97.8030 HW2           1 RES     
    4679 OW          39.1010    18.4630   101.1730 OW            1 RES     
    4680 HW1         39.9350    18.5990   100.6390 HW1           1 RES     
    4681 HW2         38.8640    19.3130   101.6440 HW2           1 RES     
    4682 OW          47.1370    43.0200   102.0080 OW            1 RES     
    4683 HW1         47.6690    43.8660   102.0120 HW1           1 RES     
    4684 HW2         47.7430    42.2440   101.8350 HW2           1 RES     
    4685 OW          15.6520    38.1310    92.2480 OW            1 RES     
    4686 HW1         16.4720    37.5980    92.4560 HW1           1 RES     
    4687 HW2         14.8780    37.5130    92.1090 HW2           1 RES     
    4688 OW          55.3370    20.9830   105.9840 OW            1 RES     
    4689 HW1         55.9190    20.1710   105.9470 HW1           1 RES     
    4690 HW2         55.7270    21.7000   105.4050 HW2           1 RES     
    4691 OW          43.6080    14.3870   111.0820 OW            1 RES     
    4692 HW1         43.5110    15.1750   110.4750 HW1           1 RES     
    4693 HW2         44.5530    14.0600   111.0550 HW2           1 RES     
    4694 OW          29.1070    31.4470    97.0560 OW            1 RES     
    4695 HW1         28.4640    32.1860    96.8580 HW1           1 RES     
    4696 HW2         28.9740    31.1330    97.9970 HW2           1 RES     
    4697 OW          37.8070    29.6830    91.8300 OW            1 RES     
    4698 HW1         37.6880    28.7990    91.3800 HW1           1 RES     
    4699 HW2         38.0960    30.3650    91.1580 HW2           1 RES     
    4700 OW          31.3470    46.2280   104.6660 OW            1 RES     
    4701 HW1         32.0770    45.6740   105.0640 HW1           1 RES     
    4702 HW2         31.5420    47.1970   104.8180 HW2           1 RES     
    4703 OW           9.0410     0.2970   108.5140 OW            1 RES     
    4704 HW1          8.5090     1.1410   108.5720 HW1           1 RES     
    4705 HW2         10.0100     0.5200   108.4070 HW2           1 RES     
    4706 OW          15.8550    13.7500   109.9380 OW            1 RES     
    4707 HW1         15.3060    14.5270   110.2450 HW1           1 RES     
    4708 HW2         15.3390    12.9040   110.0680 HW2           1 RES     
    4709 OW          14.0960    17.2270    91.8430 OW            1 RES     
    4710 HW1         13.2650    17.0960    92.3820 HW1           1 RES     
    4711 HW2         14.4840    18.1270    92.0420 HW2           1 RES     
    4712 OW          45.7210    14.1230    88.7520 OW            1 RES     
    4713 HW1         45.0250    14.8380    88.7030 HW1           1 RES     
    4714 HW2         46.5780    14.4650    88.3650 HW2           1 RES     
    4715 OW          20.4600    35.7920    99.0950 OW            1 RES     
    4716 HW1         21.1290    35.5580    99.7990 HW1           1 RES     
    4717 HW2         19.5810    35.3680    99.3160 HW2           1 RES     
    4718 OW          26.6510    42.2790    93.3810 OW            1 RES     
    4719 HW1         27.2620    42.3480    92.5930 HW1           1 RES     
    4720 HW2         25.9730    43.0130    93.3430 HW2           1 RES     
    4721 OW          38.6490     2.9930    98.6820 OW            1 RES     
    4722 HW1         38.9520     3.3290    99.5730 HW1           1 RES     
    4723 HW2         38.9860     2.0610    98.5450 HW2           1 RES     
    4724 OW          49.4290    24.7240   100.8380 OW            1 RES     
    4725 HW1         50.1480    24.1900   101.2810 HW1           1 RES     
    4726 HW2         48.6070    24.1630   100.7420 HW2           1 RES     
    4727 OW          42.2020    38.3370   108.9880 OW            1 RES     
    4728 HW1         42.3830    37.6930   109.7310 HW1           1 RES     
    4729 HW2         42.6290    38.0050   108.1470 HW2           1 RES     
    4730 OW          25.6200    17.5130   103.0050 OW            1 RES     
    4731 HW1         25.3630    16.5540   102.8920 HW1           1 RES     
    4732 HW2         24.9070    18.0980   102.6190 HW2           1 RES     
    4733 OW          13.2810    15.4380    90.8110 OW            1 RES     
    4734 HW1         12.3580    15.0560    90.7980 HW1           1 RES     
    4735 HW2         13.9500    14.6940    90.8050 HW2           1 RES     
    4736 OW          38.0190    17.3730   108.8340 OW            1 RES     
    4737 HW1         37.1680    16.8570   108.7490 HW1           1 RES     
    4738 HW2         37.8100    18.3440   108.9590 HW2           1 RES     
    4739 OW           2.7110     6.0230   111.2190 OW            1 RES     
    4740 HW1          2.1370     6.8410   111.1930 HW1           1 RES     
    4741 HW2          3.6740     6.2910   111.2480 HW2           1 RES     
    4742 OW          54.3880    41.0590    88.6830 OW            1 RES     
    4743 HW1         53.4690    40.6800    88.7920 HW1           1 RES     
    4744 HW2         54.9740    40.7310    89.4240 HW2           1 RES     
    4745 OW          59.4340    18.2770    86.3450 OW            1 RES     
    4746 HW1         59.9260    19.1460    86.3050 HW1           1 RES     
    4747 HW2         58.6300    18.3750    86.9320 HW2           1 RES     
    4748 OW          10.7350    47.8480    89.7220 OW            1 RES     
    4749 HW1         10.8680    47.1690    89.0000 HW1           1 RES     
    4750 HW2         10.1030    48.5550    89.4030 HW2           1 RES     
    4751 OW          51.6680     9.6000   110.6860 OW            1 RES     
    4752 HW1         52.4320     8.9560   110.6850 HW1           1 RES     
    4753 HW2         50.8510     9.1510   110.3230 HW2           1 RES     
    4754 OW          46.3750     9.9030    91.8610 OW            1 RES     
    4755 HW1         47.2780     9.7460    91.4620 HW1           1 RES     
    4756 HW2         46.4200    10.6760    92.4950 HW2           1 RES     
    4757 OW          53.8240    39.0140   102.5450 OW            1 RES     
    4758 HW1         54.6550    38.4590   102.5310 HW1           1 RES     
    4759 HW2         53.0840    38.5180   102.0900 HW2           1 RES     
    4760 OW           0.8090    31.1530    92.8990 OW            1 RES     
    4761 HW1          1.3260    31.2340    93.7500 HW1           1 RES     
    4762 HW2          0.8650    32.0130    92.3910 HW2           1 RES     
    4763 OW          55.4850    28.5390   109.5820 OW            1 RES     
    4764 HW1         55.0400    27.6530   109.7080 HW1           1 RES     
    4765 HW2         56.4780    28.4210   109.6190 HW2           1 RES     
    4766 OW          41.0230    31.6440   101.4230 OW            1 RES     
    4767 HW1         41.1500    32.6290   101.3110 HW1           1 RES     
    4768 HW2         40.1030    31.3890   101.1230 HW2           1 RES     
    4769 OW          26.2880    40.1510    98.6010 OW            1 RES     
    4770 HW1         25.8730    41.0590    98.6080 HW1           1 RES     
    4771 HW2         27.2660    40.2290    98.7950 HW2           1 RES     
    4772 OW          50.4400     6.1740    95.1300 OW            1 RES     
    4773 HW1         51.3660     5.8090    95.0440 HW1           1 RES     
    4774 HW2         49.7940     5.4200    95.2550 HW2           1 RES     
    4775 OW          56.1020     0.7570    94.2740 OW            1 RES     
    4776 HW1         56.9150     0.2520    93.9880 HW1           1 RES     
    4777 HW2         55.4750     0.1400    94.7480 HW2           1 RES     
    4778 OW          61.2920     8.0580    92.5580 OW            1 RES     
    4779 HW1         61.1670     7.0750    92.6940 HW1           1 RES     
    4780 HW2         60.4570     8.5400    92.8210 HW2           1 RES     
    4781 OW          57.1610    36.7890   104.6250 OW            1 RES     
    4782 HW1         57.0730    35.8110   104.4420 HW1           1 RES     
    4783 HW2         57.2230    37.2870   103.7600 HW2           1 RES     
    4784 OW          34.3590     7.6140   110.4680 OW            1 RES     
    4785 HW1         33.5960     8.1540   110.1130 HW1           1 RES     
    4786 HW2         34.0600     6.6720   110.6190 HW2           1 RES     
    4787 OW          35.8030    40.3810    91.1150 OW            1 RES     
    4788 HW1         35.3430    40.5190    90.2390 HW1           1 RES     
    4789 HW2         35.7800    41.2310    91.6420 HW2           1 RES     
    4790 OW          31.4830    32.5630    91.8030 OW            1 RES     
    4791 HW1         31.0310    33.1720    92.4530 HW1           1 RES     
    4792 HW2         31.6510    33.0540    90.9470 HW2           1 RES     
    4793 OW          47.2050    35.4500    95.4350 OW            1 RES     
    4794 HW1         46.8170    36.3710    95.4310 HW1           1 RES     
    4795 HW2         46.5160    34.7950    95.1250 HW2           1 RES     
    4796 OW          49.9250     6.0980   106.4340 OW            1 RES     
    4797 HW1         50.2310     5.1470   106.4210 HW1           1 RES     
    4798 HW2         50.2130     6.5300   107.2890 HW2           1 RES     
    4799 OW          43.6960    35.2500   107.0860 OW            1 RES     
    4800 HW1         43.2080    34.5780   106.5310 HW1           1 RES     
    4801 HW2         44.3970    34.7880   107.6300 HW2           1 RES     
    4802 OW          35.6670    21.2940   101.8790 OW            1 RES     
    4803 HW1         34.9980    21.9880   102.1410 HW1           1 RES     
    4804 HW2         35.3320    20.7910   101.0820 HW2           1 RES     
    4805 OW          28.2750    11.1940   107.9860 OW            1 RES     
    4806 HW1         27.5230    11.0090   108.6170 HW1           1 RES     
    4807 HW2         28.0940    12.0460   107.4920 HW2           1 RES     
    4808 OW          53.0040     1.9260    95.9460 OW            1 RES     
    4809 HW1         52.0310     2.1130    95.8190 HW1           1 RES     
    4810 HW2         53.1180     1.0480    96.4120 HW2           1 RES     
    4811 OW          31.6460    13.9070    92.5280 OW            1 RES     
    4812 HW1         32.1670    13.0540    92.5300 HW1           1 RES     
    4813 HW2         30.7080    13.7250    92.2330 HW2           1 RES     
    4814 OW          17.8280    21.7780    86.5120 OW            1 RES     
    4815 HW1         16.8570    21.8270    86.2770 HW1           1 RES     
    4816 HW2         17.9400    21.9150    87.4960 HW2           1 RES     
    4817 OW          61.2130    41.8810   104.9520 OW            1 RES     
    4818 HW1         60.5850    41.1740   105.2770 HW1           1 RES     
    4819 HW2         61.4640    42.4800   105.7120 HW2           1 RES     
    4820 OW          20.5630     8.7200    88.7450 OW            1 RES     
    4821 HW1         20.4070     8.0640    88.0060 HW1           1 RES     
    4822 HW2         21.2970     8.3870    89.3370 HW2           1 RES     
    4823 OW          50.6970    38.5250   104.3820 OW            1 RES     
    4824 HW1         50.8740    37.5980   104.0540 HW1           1 RES     
    4825 HW2         51.1760    38.6710   105.2480 HW2           1 RES     
    4826 OW          13.2660    37.0130    90.6070 OW            1 RES     
    4827 HW1         12.4340    37.5430    90.7660 HW1           1 RES     
    4828 HW2         13.0350    36.0430    90.5350 HW2           1 RES     
    4829 OW          40.1120    15.0250    95.0200 OW            1 RES     
    4830 HW1         39.5920    15.6890    95.5570 HW1           1 RES     
    4831 HW2         39.5600    14.2030    94.8810 HW2           1 RES     
    4832 OW          59.5910    46.9480    99.7000 OW            1 RES     
    4833 HW1         60.0170    46.3250   100.3540 HW1           1 RES     
    4834 HW2         59.2250    46.4250    98.9300 HW2           1 RES     
    4835 OW          42.6470    47.5040   104.0980 OW            1 RES     
    4836 HW1         42.9150    46.8220   104.7760 HW1           1 RES     
    4837 HW2         43.3250    48.2400   104.0770 HW2           1 RES     
    4838 OW          11.6820    32.0150    97.3110 OW            1 RES     
    4839 HW1         10.8430    31.6120    97.6760 HW1           1 RES     
    4840 HW2         12.2270    31.3040    96.8660 HW2           1 RES     
    4841 OW           1.6590    46.9120   105.2310 OW            1 RES     
    4842 HW1          1.0500    47.6930   105.3650 HW1           1 RES     
    4843 HW2          1.3330    46.1370   105.7730 HW2           1 RES     
    4844 OW           5.7740     2.4370   103.5430 OW            1 RES     
    4845 HW1          5.9860     1.6050   103.0330 HW1           1 RES     
    4846 HW2          5.0230     2.2570   104.1790 HW2           1 RES     
    4847 OW          36.7840    27.9700   109.5510 OW            1 RES     
    4848 HW1         36.4630    27.4760   110.3580 HW1           1 RES     
    4849 HW2         37.7550    27.7760   109.4060 HW2           1 RES     
    4850 OW          62.1760     1.3060    97.1090 OW            1 RES     
    4851 HW1         61.2170     1.0280    97.1230 HW1           1 RES     
    4852 HW2         62.3590     1.9190    97.8780 HW2           1 RES     
    4853 OW          27.6160    10.2660   102.8930 OW            1 RES     
    4854 HW1         27.2680    10.0710   103.8090 HW1           1 RES     
    4855 HW2         27.1900     9.6450   102.2350 HW2           1 RES     
    4856 OW           1.3330    15.1930    90.2450 OW            1 RES     
    4857 HW1          0.9590    16.1150    90.3380 HW1           1 RES     
    4858 HW2          0.6770    14.6130    89.7610 HW2           1 RES     
    4859 OW          54.8430    22.4570   100.5270 OW            1 RES     
    4860 HW1         54.2610    23.2640   100.6220 HW1           1 RES     
    4861 HW2         54.2710    21.6490   100.3800 HW2           1 RES     
    4862 OW          58.3740    22.6100   107.2470 OW            1 RES     
    4863 HW1         57.6820    23.3310   107.2620 HW1           1 RES     
    4864 HW2         57.9310    21.7250   107.1070 HW2           1 RES     
    4865 OW          11.4730     7.2170    96.2800 OW            1 RES     
    4866 HW1         12.2840     7.0240    96.8300 HW1           1 RES     
    4867 HW2         10.7360     6.5920    96.5400 HW2           1 RES     
    4868 OW          12.0620    15.3670   106.7740 OW            1 RES     
    4869 HW1         11.4210    15.9340   106.2580 HW1           1 RES     
    4870 HW2         12.7600    15.9490   107.1920 HW2           1 RES     
    4871 OW          60.6790    16.7580    89.3420 OW            1 RES     
    4872 HW1         60.0780    17.5460    89.2130 HW1           1 RES     
    4873 HW2         61.5890    17.0730    89.6120 HW2           1 RES     
    4874 OW          15.7880    29.9380    88.8080 OW            1 RES     
    4875 HW1         15.8760    29.5150    89.7090 HW1           1 RES     
    4876 HW2         16.6250    29.7820    88.2830 HW2           1 RES     
    4877 OW          31.6340    36.5170   102.2820 OW            1 RES     
    4878 HW1         31.3010    37.4250   102.5350 HW1           1 RES     
    4879 HW2         32.6270    36.4820   102.3970 HW2           1 RES     
    4880 OW          13.1360    13.3520   109.0520 OW            1 RES     
    4881 HW1         13.0610    14.2580   108.6370 HW1           1 RES     
    4882 HW2         13.1160    13.4380   110.0480 HW2           1 RES     
    4883 OW          40.8800    45.1340   101.5030 OW            1 RES     
    4884 HW1         41.8410    44.9690   101.2810 HW1           1 RES     
    4885 HW2         40.3480    44.3080   101.3150 HW2           1 RES     
    4886 OW          43.9660     9.1860    87.8280 OW            1 RES     
    4887 HW1         43.4810     9.0100    88.6850 HW1           1 RES     
    4888 HW2         43.9450    10.1650    87.6280 HW2           1 RES     
    4889 OW          31.6330    19.0780    93.2560 OW            1 RES     
    4890 HW1         31.2640    18.2010    93.5610 HW1           1 RES     
    4891 HW2         31.3790    19.7920    93.9090 HW2           1 RES     
    4892 OW          55.4450    18.8150   103.5230 OW            1 RES     
    4893 HW1         56.3030    18.5770   103.9770 HW1           1 RES     
    4894 HW2         54.8480    19.2940   104.1670 HW2           1 RES     
    4895 OW          53.6860    38.6360    87.0600 OW            1 RES     
    4896 HW1         53.4470    38.2550    86.1680 HW1           1 RES     
    4897 HW2         54.2730    39.4360    86.9350 HW2           1 RES     
    4898 OW          39.9560    22.5610   104.3570 OW            1 RES     
    4899 HW1         39.6020    21.6990   103.9940 HW1           1 RES     
    4900 HW2         40.8770    22.4170   104.7200 HW2           1 RES     
    4901 OW           1.4990    38.7910    87.9530 OW            1 RES     
    4902 HW1          1.9780    39.0170    88.8000 HW1           1 RES     
    4903 HW2          2.1620    38.5010    87.2620 HW2           1 RES     
    4904 OW          11.4300    10.8880   100.7600 OW            1 RES     
    4905 HW1         11.4020    11.3700    99.8850 HW1           1 RES     
    4906 HW2         12.1550    10.1990   100.7390 HW2           1 RES     
    4907 OW          44.1070     1.3370    87.0890 OW            1 RES     
    4908 HW1         44.7740     0.6080    87.2410 HW1           1 RES     
    4909 HW2         43.2200     0.9350    86.8590 HW2           1 RES     
    4910 OW          27.2530    26.7270    87.6790 OW            1 RES     
    4911 HW1         27.9340    25.9950    87.6900 HW1           1 RES     
    4912 HW2         27.3480    27.2570    86.8360 HW2           1 RES     
    4913 OW          12.9160    15.2990    97.2100 OW            1 RES     
    4914 HW1         13.6870    15.6440    97.7450 HW1           1 RES     
    4915 HW2         13.0020    14.3090    97.1000 HW2           1 RES     
    4916 OW           2.6970     9.0290    93.7020 OW            1 RES     
    4917 HW1          2.5650     8.1200    93.3080 HW1           1 RES     
    4918 HW2          3.6250     9.3470    93.5060 HW2           1 RES     
    4919 OW          14.6430    20.3160    89.2500 OW            1 RES     
    4920 HW1         14.1260    19.5350    88.9020 HW1           1 RES     
    4921 HW2         14.0100    21.0190    89.5740 HW2           1 RES     
    4922 OW          14.3450    44.2980    86.5350 OW            1 RES     
    4923 HW1         13.6660    44.6350    87.1870 HW1           1 RES     
    4924 HW2         14.7850    43.4790    86.9030 HW2           1 RES     
    4925 OW          11.7880    34.6460    96.4120 OW            1 RES     
    4926 HW1         11.6310    33.7670    95.9650 HW1           1 RES     
    4927 HW2         12.7700    34.7840    96.5430 HW2           1 RES     
    4928 OW          36.1810    41.0150   105.4940 OW            1 RES     
    4929 HW1         35.7420    41.8490   105.8290 HW1           1 RES     
    4930 HW2         37.1610    41.1770   105.3800 HW2           1 RES     
    4931 OW          47.0600    40.1170   107.9850 OW            1 RES     
    4932 HW1         47.2850    39.9860   107.0200 HW1           1 RES     
    4933 HW2         46.0870    39.9390   108.1290 HW2           1 RES     
    4934 OW          48.6900     2.5340    90.1300 OW            1 RES     
    4935 HW1         48.0000     3.2550    90.1610 HW1           1 RES     
    4936 HW2         49.1550     2.5540    89.2440 HW2           1 RES     
    4937 OW          35.6740     7.0950   108.7330 OW            1 RES     
    4938 HW1         35.4460     6.1220   108.7690 HW1           1 RES     
    4939 HW2         34.9730     7.5830   108.2120 HW2           1 RES     
    4940 OW          53.9350    34.7500   102.0160 OW            1 RES     
    4941 HW1         53.5080    35.6480   102.1190 HW1           1 RES     
    4942 HW2         54.9040    34.8640   101.7960 HW2           1 RES     
    4943 OW          55.6160     7.2720   111.0790 OW            1 RES     
    4944 HW1         55.0390     6.4560   111.0870 HW1           1 RES     
    4945 HW2         55.0550     8.0790   111.2640 HW2           1 RES     
    4946 OW          15.5260     0.6220    97.1370 OW            1 RES     
    4947 HW1         14.7730     0.0430    97.4470 HW1           1 RES     
    4948 HW2         16.3960     0.2170    97.4180 HW2           1 RES     
    4949 OW          33.6050     8.7070    96.7160 OW            1 RES     
    4950 HW1         33.2230     9.6270    96.6300 HW1           1 RES     
    4951 HW2         34.5980     8.7670    96.8220 HW2           1 RES     
    4952 OW          38.1470     6.2750   110.0440 OW            1 RES     
    4953 HW1         37.1720     6.4260   110.2020 HW1           1 RES     
    4954 HW2         38.5390     7.0730   109.5870 HW2           1 RES     
    4955 OW           9.5860     2.3110    93.3670 OW            1 RES     
    4956 HW1          9.4770     1.3230    93.4670 HW1           1 RES     
    4957 HW2          8.6860     2.7470    93.3570 HW2           1 RES     
    4958 OW          13.3020    11.2230    97.6930 OW            1 RES     
    4959 HW1         12.7680    12.0440    97.8920 HW1           1 RES     
    4960 HW2         13.1970    10.5670    98.4410 HW2           1 RES     
    4961 OW          38.5300    44.4670   108.0440 OW            1 RES     
    4962 HW1         37.8200    44.6150   107.3560 HW1           1 RES     
    4963 HW2         38.3680    45.0700   108.8260 HW2           1 RES     
    4964 OW          10.8480    39.3320   105.8000 OW            1 RES     
    4965 HW1         11.3290    38.9150   105.0300 HW1           1 RES     
    4966 HW2         11.3500    40.1380   106.1110 HW2           1 RES     
    4967 OW          12.9600    13.8640    99.8130 OW            1 RES     
    4968 HW1         13.7110    14.5230    99.8050 HW1           1 RES     
    4969 HW2         12.0920    14.3460    99.6920 HW2           1 RES     
    4970 OW          41.2190     0.9930   109.4100 OW            1 RES     
    4971 HW1         41.6220     1.6600   108.7840 HW1           1 RES     
    4972 HW2         41.7920     0.1740   109.4410 HW2           1 RES     
    4973 OW          36.7750     2.3330   100.2310 OW            1 RES     
    4974 HW1         36.7010     1.3580   100.0240 HW1           1 RES     
    4975 HW2         35.8610     2.7370   100.2660 HW2           1 RES     
    4976 OW          54.6330    34.4450   106.2410 OW            1 RES     
    4977 HW1         53.9730    34.4740   105.4910 HW1           1 RES     
    4978 HW2         55.2150    35.2570   106.2050 HW2           1 RES     
    4979 OW          20.6150    42.6390   104.4400 OW            1 RES     
    4980 HW1         20.1950    41.9300   103.8740 HW1           1 RES     
    4981 HW2         20.4720    42.4250   105.4060 HW2           1 RES     
    4982 OW          12.0170    45.4960   109.8600 OW            1 RES     
    4983 HW1         11.2120    45.4310   110.4480 HW1           1 RES     
    4984 HW2         12.3580    46.4360   109.8620 HW2           1 RES     
    4985 OW          18.9480    18.5710    95.5240 OW            1 RES     
    4986 HW1         18.1650    19.0070    95.0820 HW1           1 RES     
    4987 HW2         19.3030    17.8450    94.9350 HW2           1 RES     
    4988 OW          51.0150    12.1980   105.8750 OW            1 RES     
    4989 HW1         51.0830    11.2060   105.7710 HW1           1 RES     
    4990 HW2         50.1070    12.4360   106.2190 HW2           1 RES     
    4991 OW          23.9550    23.9070    92.4440 OW            1 RES     
    4992 HW1         23.9650    23.9160    91.4440 HW1           1 RES     
    4993 HW2         24.0620    24.8400    92.7880 HW2           1 RES     
    4994 OW          57.2620    16.0020   102.1350 OW            1 RES     
    4995 HW1         56.3910    15.5830   102.3890 HW1           1 RES     
    4996 HW2         57.8050    15.3500   101.6060 HW2           1 RES     
    4997 OW          15.8720    38.4070    89.2240 OW            1 RES     
    4998 HW1         15.5080    37.8100    89.9380 HW1           1 RES     
    4999 HW2         15.4370    38.1860    88.3510 HW2           1 RES     
    5000 OW          14.4410    40.2240   110.7390 OW            1 RES     
    5001 HW1         14.5120    39.2270   110.6990 HW1           1 RES     
    5002 HW2         13.4780    40.4910   110.7040 HW2           1 RES     
    5003 OW          27.2210    48.3890   106.0300 OW            1 RES     
    5004 HW1         26.9270    48.7240   105.1350 HW1           1 RES     
    5005 HW2         27.2740    47.3910   106.0120 HW2           1 RES     
    5006 OW          38.8790    39.7650    92.9970 OW            1 RES     
    5007 HW1         38.3260    39.2030    93.6110 HW1           1 RES     
    5008 HW2         38.9960    39.2910    92.1240 HW2           1 RES     
    5009 OW          31.3200     9.7160   101.9810 OW            1 RES     
    5010 HW1         31.9490    10.4910   101.9400 HW1           1 RES     
    5011 HW2         31.8410     8.8650   102.0490 HW2           1 RES     
    5012 OW           3.0920    13.2090   102.7100 OW            1 RES     
    5013 HW1          2.2140    13.4890   102.3220 HW1           1 RES     
    5014 HW2          3.7670    13.9330   102.5630 HW2           1 RES     
    5015 OW          39.7180    22.0050   107.1440 OW            1 RES     
    5016 HW1         39.1600    22.7660   106.8150 HW1           1 RES     
    5017 HW2         39.4580    21.1680   106.6630 HW2           1 RES     
    5018 OW          24.5210    17.9290    92.3220 OW            1 RES     
    5019 HW1         25.4690    18.2060    92.1700 HW1           1 RES     
    5020 HW2         23.9210    18.4360    91.7030 HW2           1 RES     
    5021 OW          35.5880     9.4850    99.9950 OW            1 RES     
    5022 HW1         34.6270     9.7290   100.1190 HW1           1 RES     
    5023 HW2         36.0650    10.2290    99.5280 HW2           1 RES     
    5024 OW          35.5210     3.6850    95.5750 OW            1 RES     
    5025 HW1         34.6050     3.5550    95.1950 HW1           1 RES     
    5026 HW2         35.9330     2.7940    95.7650 HW2           1 RES     
    5027 OW          18.6180    23.9300    86.9190 OW            1 RES     
    5028 HW1         18.0350    24.2470    86.1720 HW1           1 RES     
    5029 HW2         18.8650    24.7040    87.5020 HW2           1 RES     
    5030 OW           8.0670    18.5250    86.3470 OW            1 RES     
    5031 HW1          7.1240    18.8320    86.2200 HW1           1 RES     
    5032 HW2          8.6750    19.3180    86.3780 HW2           1 RES     
    5033 OW           4.8260    27.5110    96.6340 OW            1 RES     
    5034 HW1          4.4320    28.4300    96.6340 HW1           1 RES     
    5035 HW2          5.4330    27.4090    95.8460 HW2           1 RES     
    5036 OW          58.6340    21.4780    86.7260 OW            1 RES     
    5037 HW1         57.6600    21.3500    86.5390 HW1           1 RES     
    5038 HW2         58.7460    21.9470    87.6020 HW2           1 RES     
    5039 OW          56.3200    40.3000    93.8330 OW            1 RES     
    5040 HW1         56.2370    40.9590    93.0860 HW1           1 RES     
    5041 HW2         55.8590    40.6580    94.6460 HW2           1 RES     
    5042 OW          20.8770     3.8130   103.3880 OW            1 RES     
    5043 HW1         21.4180     4.4790   103.9010 HW1           1 RES     
    5044 HW2         21.2230     2.8920   103.5670 HW2           1 RES     
    5045 OW          15.9640    38.4300   101.4200 OW            1 RES     
    5046 HW1         16.8860    38.0460   101.3830 HW1           1 RES     
    5047 HW2         15.2920    37.6900   101.3890 HW2           1 RES     
    5048 OW          50.3360    28.5080    99.5540 OW            1 RES     
    5049 HW1         51.3090    28.6780    99.4010 HW1           1 RES     
    5050 HW2         49.8360    28.6340    98.6960 HW2           1 RES     
    5051 OW          33.6650     4.0680   107.3130 OW            1 RES     
    5052 HW1         32.9660     3.3610   107.2120 HW1           1 RES     
    5053 HW2         33.2400     4.9700   107.2430 HW2           1 RES     
    5054 OW          14.3770    18.1510   105.2000 OW            1 RES     
    5055 HW1         14.1690    17.2840   105.6540 HW1           1 RES     
    5056 HW2         13.5340    18.6770   105.0850 HW2           1 RES     
    5057 OW          32.0650    35.2590    87.0690 OW            1 RES     
    5058 HW1         31.7380    34.3210    87.1830 HW1           1 RES     
    5059 HW2         31.8000    35.5980    86.1660 HW2           1 RES     
    5060 OW          33.1800    28.6040   100.0610 OW            1 RES     
    5061 HW1         32.2770    28.1770   100.0970 HW1           1 RES     
    5062 HW2         33.7870    28.0520    99.4890 HW2           1 RES     
    5063 OW          56.8600    26.7540   103.1050 OW            1 RES     
    5064 HW1         56.8710    27.7520   103.0520 HW1           1 RES     
    5065 HW2         57.7750    26.3990   102.9130 HW2           1 RES     
    5066 OW           1.2840    42.1920   108.3070 OW            1 RES     
    5067 HW1          1.6300    41.3010   108.6010 HW1           1 RES     
    5068 HW2          1.9300    42.6060   107.6660 HW2           1 RES     
    5069 OW          12.2180    22.5290    89.7040 OW            1 RES     
    5070 HW1         11.9160    21.6190    89.9890 HW1           1 RES     
    5071 HW2         11.6650    22.8360    88.9300 HW2           1 RES     
    5072 OW          24.1760    40.0970   103.2680 OW            1 RES     
    5073 HW1         23.4330    40.5130   102.7460 HW1           1 RES     
    5074 HW2         24.9740    40.7000   103.2520 HW2           1 RES     
    5075 OW          38.2910    16.5240    87.2730 OW            1 RES     
    5076 HW1         38.9330    15.7700    87.4080 HW1           1 RES     
    5077 HW2         37.7730    16.3750    86.4300 HW2           1 RES     
    5078 OW          27.7350    40.8680   101.8600 OW            1 RES     
    5079 HW1         27.9450    41.1760   100.9330 HW1           1 RES     
    5080 HW2         26.7950    41.1180   102.0910 HW2           1 RES     
    5081 OW          13.6640    22.1110   110.3620 OW            1 RES     
    5082 HW1         14.5200    22.5240   110.0540 HW1           1 RES     
    5083 HW2         13.7720    21.1180   110.4150 HW2           1 RES     
    5084 OW          15.8070    20.0510   110.3770 OW            1 RES     
    5085 HW1         16.2190    19.1500   110.5070 HW1           1 RES     
    5086 HW2         16.5260    20.7470   110.3630 HW2           1 RES     
    5087 OW           6.0690    44.1120   101.6870 OW            1 RES     
    5088 HW1          7.0240    44.4050   101.6850 HW1           1 RES     
    5089 HW2          6.0250    43.1130   101.7150 HW2           1 RES     
    5090 OW           9.1870    41.5840    89.2900 OW            1 RES     
    5091 HW1          8.2770    41.2250    89.0850 HW1           1 RES     
    5092 HW2          9.7470    41.5640    88.4610 HW2           1 RES     
    5093 OW          35.3710    13.7390    99.5110 OW            1 RES     
    5094 HW1         34.7030    13.4530    98.8250 HW1           1 RES     
    5095 HW2         35.1470    13.3190   100.3910 HW2           1 RES     
    5096 OW           9.8740    28.0430   110.5860 OW            1 RES     
    5097 HW1          9.3760    28.7630   110.1050 HW1           1 RES     
    5098 HW2          9.4630    27.1560   110.3770 HW2           1 RES     
    5099 OW          29.0760    12.5210    90.0790 OW            1 RES     
    5100 HW1         29.2020    13.1180    89.2870 HW1           1 RES     
    5101 HW2         28.8020    11.6100    89.7700 HW2           1 RES     
    5102 OW          32.8840     6.2620    97.0070 OW            1 RES     
    5103 HW1         31.9730     5.8530    97.0470 HW1           1 RES     
    5104 HW2         33.5760     5.5450    97.0990 HW2           1 RES     
    5105 OW          55.9560     1.1240   110.2220 OW            1 RES     
    5106 HW1         56.2670     1.3920   111.1330 HW1           1 RES     
    5107 HW2         56.6570     1.3590   109.5480 HW2           1 RES     
    5108 OW           2.6950    16.8310    87.1600 OW            1 RES     
    5109 HW1          3.6170    16.8060    86.7760 HW1           1 RES     
    5110 HW2          2.2500    17.6900    86.9060 HW2           1 RES     
    5111 OW          59.0380    38.9330   102.7960 OW            1 RES     
    5112 HW1         60.0020    39.1570   102.9320 HW1           1 RES     
    5113 HW2         58.5110    39.7750   102.6790 HW2           1 RES     
    5114 OW          61.3320    40.4160    97.3620 OW            1 RES     
    5115 HW1         60.5570    40.1010    97.9090 HW1           1 RES     
    5116 HW2         61.2860    40.0070    96.4510 HW2           1 RES     
    5117 OW          48.1270    12.9940    93.9430 OW            1 RES     
    5118 HW1         47.3170    12.5200    93.5990 HW1           1 RES     
    5119 HW2         48.8190    13.0400    93.2220 HW2           1 RES     
    5120 OW          25.1530    34.8830    92.0030 OW            1 RES     
    5121 HW1         24.3810    34.5840    91.4420 HW1           1 RES     
    5122 HW2         25.0370    34.5450    92.9370 HW2           1 RES     
    5123 OW          43.1650    26.8390    89.6350 OW            1 RES     
    5124 HW1         43.3710    26.2560    88.8500 HW1           1 RES     
    5125 HW2         43.8940    27.5140    89.7500 HW2           1 RES     
    5126 OW           7.8790    46.6720    92.9620 OW            1 RES     
    5127 HW1          8.3610    47.3910    92.4630 HW1           1 RES     
    5128 HW2          8.5420    46.0310    93.3470 HW2           1 RES     
    5129 OW          31.3110    37.2410   100.0970 OW            1 RES     
    5130 HW1         31.5790    36.8910    99.2000 HW1           1 RES     
    5131 HW2         31.8560    38.0510   100.3150 HW2           1 RES     
    5132 OW          12.2300    42.9120   107.0140 OW            1 RES     
    5133 HW1         12.8030    42.3790   106.3920 HW1           1 RES     
    5134 HW2         12.8040    43.3330   107.7180 HW2           1 RES     
    5135 OW          24.2590     7.4520    98.2160 OW            1 RES     
    5136 HW1         23.2930     7.3720    97.9760 HW1           1 RES     
    5137 HW2         24.7690     7.8110    97.4330 HW2           1 RES     
    5138 OW          62.6280    15.2930   100.9940 OW            1 RES     
    5139 HW1         62.5130    16.0710   101.6100 HW1           1 RES     
    5140 HW2         61.8590    14.6620   101.1040 HW2           1 RES     
    5141 OW           5.8100    35.3380   101.6080 OW            1 RES     
    5142 HW1          5.2290    34.5820   101.9070 HW1           1 RES     
    5143 HW2          6.0790    35.1970   100.6550 HW2           1 RES     
    5144 OW          35.1050    11.0370    90.8070 OW            1 RES     
    5145 HW1         34.3400    11.2360    90.1960 HW1           1 RES     
    5146 HW2         35.2900    10.0540    90.8020 HW2           1 RES     
    5147 OW          16.9740    19.7320    88.5560 OW            1 RES     
    5148 HW1         16.3830    20.2100    87.9070 HW1           1 RES     
    5149 HW2         16.8840    18.7450    88.4240 HW2           1 RES     
    5150 OW           8.3460    47.4950   100.4520 OW            1 RES     
    5151 HW1          9.0990    48.1410   100.5660 HW1           1 RES     
    5152 HW2          7.5020    47.9970   100.2610 HW2           1 RES     
    5153 OW          43.6300    13.4850    95.6880 OW            1 RES     
    5154 HW1         44.4760    13.9220    95.9920 HW1           1 RES     
    5155 HW2         43.4610    12.6660    96.2360 HW2           1 RES     
    5156 OW          13.1700    26.2090   110.8400 OW            1 RES     
    5157 HW1         12.7210    26.9760   110.3820 HW1           1 RES     
    5158 HW2         14.0210    26.5230   111.2610 HW2           1 RES     
    5159 OW          32.0780    35.0200   105.1890 OW            1 RES     
    5160 HW1         32.1970    34.9680   104.1980 HW1           1 RES     
    5161 HW2         32.6300    34.3120   105.6300 HW2           1 RES     
    5162 OW          27.3150     0.6120   102.3770 OW            1 RES     
    5163 HW1         26.5420     1.2420   102.4480 HW1           1 RES     
    5164 HW2         27.3390     0.0210   103.1840 HW2           1 RES     
    5165 OW          41.1480    26.2150   106.0840 OW            1 RES     
    5166 HW1         40.8180    26.2240   105.1410 HW1           1 RES     
    5167 HW2         40.8820    25.3570   106.5240 HW2           1 RES     
    5168 OW          12.0590     6.0450   102.7210 OW            1 RES     
    5169 HW1         12.9320     6.3640   103.0860 HW1           1 RES     
    5170 HW2         11.4480     5.8050   103.4760 HW2           1 RES     
    5171 OW          24.8550     2.2130   103.8060 OW            1 RES     
    5172 HW1         25.4790     2.8940   104.1890 HW1           1 RES     
    5173 HW2         24.5950     2.4830   102.8790 HW2           1 RES     
    5174 OW          36.8270    36.6760    99.2600 OW            1 RES     
    5175 HW1         36.4090    37.3300    99.8900 HW1           1 RES     
    5176 HW2         37.7820    36.5290    99.5180 HW2           1 RES     
    5177 OW          37.4430    28.9310   105.2920 OW            1 RES     
    5178 HW1         37.6430    28.5360   106.1880 HW1           1 RES     
    5179 HW2         36.4770    29.1860   105.2470 HW2           1 RES     
    5180 OW          27.6730    39.9160    90.9280 OW            1 RES     
    5181 HW1         28.3880    39.2930    90.6130 HW1           1 RES     
    5182 HW2         27.0740    40.1510    90.1630 HW2           1 RES     
    5183 OW          23.5310    43.6190   109.6110 OW            1 RES     
    5184 HW1         23.5130    43.1990   110.5180 HW1           1 RES     
    5185 HW2         24.3320    44.2140   109.5350 HW2           1 RES     
    5186 OW          59.8210    11.2950    91.4620 OW            1 RES     
    5187 HW1         59.7130    10.3020    91.4330 HW1           1 RES     
    5188 HW2         60.7250    11.5430    91.1130 HW2           1 RES     
    5189 OW          14.7080     8.7470   111.0510 OW            1 RES     
    5190 HW1         14.8330     8.2160   110.2140 HW1           1 RES     
    5191 HW2         13.7330     8.8140   111.2620 HW2           1 RES     
    5192 OW          60.3160    32.3840   109.8690 OW            1 RES     
    5193 HW1         60.1770    31.4070   110.0310 HW1           1 RES     
    5194 HW2         61.2950    32.5750   109.8040 HW2           1 RES     
    5195 OW          14.5120    42.9850    99.7380 OW            1 RES     
    5196 HW1         15.3550    42.7890    99.2380 HW1           1 RES     
    5197 HW2         13.8290    43.3540    99.1080 HW2           1 RES     
    5198 OW          35.5700     4.6100   104.7360 OW            1 RES     
    5199 HW1         35.5010     4.3240   103.7810 HW1           1 RES     
    5200 HW2         34.8150     5.2290   104.9540 HW2           1 RES     
    5201 OW           9.8230    20.9870   109.7470 OW            1 RES     
    5202 HW1         10.7290    21.4030   109.6860 HW1           1 RES     
    5203 HW2          9.5730    20.6000   108.8590 HW2           1 RES     
    5204 OW          43.9530    12.8970   105.7210 OW            1 RES     
    5205 HW1         43.8280    11.9070   105.7600 HW1           1 RES     
    5206 HW2         43.2420    13.3010   105.1440 HW2           1 RES     
    5207 OW          19.5640    37.8270    95.1980 OW            1 RES     
    5208 HW1         19.1730    37.0030    95.6070 HW1           1 RES     
    5209 HW2         19.2110    38.6340    95.6730 HW2           1 RES     
    5210 OW          24.9030     5.2580    97.3960 OW            1 RES     
    5211 HW1         24.8010     5.6270    96.4730 HW1           1 RES     
    5212 HW2         24.0210     5.2920    97.8680 HW2           1 RES     
    5213 OW          57.9960     3.0060    98.1800 OW            1 RES     
    5214 HW1         58.9440     3.2190    97.9430 HW1           1 RES     
    5215 HW2         57.5250     3.8440    98.4570 HW2           1 RES     
    5216 OW           4.0450    26.5560    88.6260 OW            1 RES     
    5217 HW1          3.8950    27.4020    88.1150 HW1           1 RES     
    5218 HW2          3.3480    26.4690    89.3380 HW2           1 RES     
    5219 OW          44.6200    40.1710    99.7720 OW            1 RES     
    5220 HW1         45.5220    40.3950   100.1390 HW1           1 RES     
    5221 HW2         44.3250    39.2850   100.1300 HW2           1 RES     
    5222 OW          22.4250    46.2860    91.0340 OW            1 RES     
    5223 HW1         21.5580    45.8810    91.3220 HW1           1 RES     
    5224 HW2         22.7880    46.8560    91.7720 HW2           1 RES     
    5225 OW          40.8570    24.2630    98.2490 OW            1 RES     
    5226 HW1         41.1950    24.0060    99.1540 HW1           1 RES     
    5227 HW2         39.8740    24.4400    98.2980 HW2           1 RES     
    5228 OW           8.0300    17.6870    90.7330 OW            1 RES     
    5229 HW1          7.7400    16.7310    90.6890 HW1           1 RES     
    5230 HW2          8.7270    17.7920    91.4430 HW2           1 RES     
    5231 OW          38.8650    25.7560    91.5110 OW            1 RES     
    5232 HW1         38.0080    26.1580    91.8320 HW1           1 RES     
    5233 HW2         39.3280    25.3030    92.2730 HW2           1 RES     
    5234 OW          55.4060    33.4480   103.4310 OW            1 RES     
    5235 HW1         56.2720    32.9500   103.4560 HW1           1 RES     
    5236 HW2         54.6460    32.8020   103.4990 HW2           1 RES     
    5237 OW           0.1220    38.1990   100.4700 OW            1 RES     
    5238 HW1          0.5350    39.0930   100.3020 HW1           1 RES     
    5239 HW2          0.0890    37.6800    99.6150 HW2           1 RES     
    5240 OW           7.8150    19.9150    97.9530 OW            1 RES     
    5241 HW1          8.7130    20.2920    97.7300 HW1           1 RES     
    5242 HW2          7.8900    18.9250    98.0770 HW2           1 RES     
    5243 OW          12.9500     2.6250   102.1910 OW            1 RES     
    5244 HW1         12.3160     2.8930   102.9150 HW1           1 RES     
    5245 HW2         13.3250     3.4430   101.7560 HW2           1 RES     
    5246 OW          62.2970    11.2260    95.5300 OW            1 RES     
    5247 HW1         62.4650    10.9530    94.5830 HW1           1 RES     
    5248 HW2         61.3110    11.2850    95.6900 HW2           1 RES     
    5249 OW          57.5580    26.1210   108.2730 OW            1 RES     
    5250 HW1         56.6320    26.4240   108.4970 HW1           1 RES     
    5251 HW2         58.2230    26.7350   108.6980 HW2           1 RES     
    5252 OW          50.5320    35.9390   101.6320 OW            1 RES     
    5253 HW1         50.2300    35.9480   102.5840 HW1           1 RES     
    5254 HW2         51.2680    36.6060   101.5090 HW2           1 RES     
    5255 OW           7.9420    16.7740    95.1570 OW            1 RES     
    5256 HW1          7.9550    17.1140    96.0970 HW1           1 RES     
    5257 HW2          7.7210    15.7990    95.1570 HW2           1 RES     
    5258 OW           5.0990    37.9250    87.0820 OW            1 RES     
    5259 HW1          5.5120    37.6230    87.9410 HW1           1 RES     
    5260 HW2          4.8490    37.1270    86.5340 HW2           1 RES     
    5261 OW          48.5810    33.2850   106.7020 OW            1 RES     
    5262 HW1         49.1000    33.7750   107.4010 HW1           1 RES     
    5263 HW2         48.3860    33.9010   105.9380 HW2           1 RES     
    5264 OW          35.2870    26.1010   101.3860 OW            1 RES     
    5265 HW1         34.4940    26.2540   101.9740 HW1           1 RES     
    5266 HW2         35.2190    26.6830   100.5750 HW2           1 RES     
    5267 OW          39.3920    18.1280    90.2160 OW            1 RES     
    5268 HW1         39.8720    17.2660    90.0590 HW1           1 RES     
    5269 HW2         39.3890    18.3360    91.1940 HW2           1 RES     
    5270 OW          49.1400    12.5380   110.4780 OW            1 RES     
    5271 HW1         48.2230    12.3120   110.8040 HW1           1 RES     
    5272 HW2         49.8200    12.0780   111.0500 HW2           1 RES     
    5273 OW           3.8320    38.6660   108.4400 OW            1 RES     
    5274 HW1          2.8670    38.6470   108.1790 HW1           1 RES     
    5275 HW2          4.0490    37.8520   108.9790 HW2           1 RES     
    5276 OW          60.6170    16.9460    92.5800 OW            1 RES     
    5277 HW1         60.8020    17.2820    91.6570 HW1           1 RES     
    5278 HW2         60.2990    15.9980    92.5330 HW2           1 RES     
    5279 OW          27.3680     0.0150    87.9170 OW            1 RES     
    5280 HW1         27.2780     0.2770    86.9570 HW1           1 RES     
    5281 HW2         28.1740     0.4570    88.3100 HW2           1 RES     
    5282 OW          30.5750     4.0480    92.2860 OW            1 RES     
    5283 HW1         29.9270     3.3010    92.4270 HW1           1 RES     
    5284 HW2         30.0910     4.8470    91.9270 HW2           1 RES     
    5285 OW           6.2670    36.4970   110.0040 OW            1 RES     
    5286 HW1          7.1330    36.9030   110.2920 HW1           1 RES     
    5287 HW2          5.5080    37.0150   110.3980 HW2           1 RES     
    5288 OW          53.3480     5.5680    90.5930 OW            1 RES     
    5289 HW1         53.9870     6.1260    90.0650 HW1           1 RES     
    5290 HW2         53.4890     4.6020    90.3760 HW2           1 RES     
    5291 OW          12.3760    16.6430   103.4400 OW            1 RES     
    5292 HW1         13.3030    17.0170   103.4570 HW1           1 RES     
    5293 HW2         11.8540    17.0110   104.2100 HW2           1 RES     
    5294 OW           1.6850     5.1450   100.0380 OW            1 RES     
    5295 HW1          2.6380     5.2000   100.3320 HW1           1 RES     
    5296 HW2          1.6210     5.3740    99.0660 HW2           1 RES     
    5297 OW          11.4860    32.7400   108.5910 OW            1 RES     
    5298 HW1         10.4950    32.6860   108.4740 HW1           1 RES     
    5299 HW2         11.9140    31.9270   108.1960 HW2           1 RES     
    5300 OW          52.7100    40.5140   107.2480 OW            1 RES     
    5301 HW1         53.2480    41.3210   107.0080 HW1           1 RES     
    5302 HW2         53.3190    39.7900   107.5720 HW2           1 RES     
    5303 OW          53.4750    25.3230    91.2870 OW            1 RES     
    5304 HW1         53.3560    24.3530    91.4920 HW1           1 RES     
    5305 HW2         54.1960    25.7020    91.8680 HW2           1 RES     
    5306 OW           5.3860    42.9290    92.8400 OW            1 RES     
    5307 HW1          5.7080    41.9970    92.6750 HW1           1 RES     
    5308 HW2          6.1350    43.4820    93.2050 HW2           1 RES     
    5309 OW          44.3840    47.7110    94.0670 OW            1 RES     
    5310 HW1         43.4640    48.0970    94.0050 HW1           1 RES     
    5311 HW2         44.3220    46.7190    94.1760 HW2           1 RES     
    5312 OW          32.8640    40.0650    90.6970 OW            1 RES     
    5313 HW1         32.4150    40.7290    91.2940 HW1           1 RES     
    5314 HW2         33.2120    39.3050    91.2460 HW2           1 RES     
    5315 OW          52.7250    19.7050    89.9470 OW            1 RES     
    5316 HW1         52.0100    19.0130    90.0480 HW1           1 RES     
    5317 HW2         53.6010    19.2560    89.7710 HW2           1 RES     
    5318 OW          27.7240    33.9050    99.1680 OW            1 RES     
    5319 HW1         27.8030    32.9220    99.3280 HW1           1 RES     
    5320 HW2         26.7570    34.1590    99.1230 HW2           1 RES     
    5321 OW          11.4210    48.0630   111.0140 OW            1 RES     
    5322 HW1         11.1420    48.6750   110.2750 HW1           1 RES     
    5323 HW2         10.6700    47.4410   111.2350 HW2           1 RES     
    5324 OW          50.7520    31.8450   101.3650 OW            1 RES     
    5325 HW1         51.6030    32.3700   101.3660 HW1           1 RES     
    5326 HW2         50.9450    30.8970   101.6200 HW2           1 RES     
    5327 OW          14.9890    10.6810    89.9460 OW            1 RES     
    5328 HW1         15.7980    10.1170    90.1060 HW1           1 RES     
    5329 HW2         14.4050    10.6660    90.7590 HW2           1 RES     
    5330 OW          49.8460    13.2230    89.1170 OW            1 RES     
    5331 HW1         49.3630    13.4690    88.2780 HW1           1 RES     
    5332 HW2         49.3620    13.6050    89.9050 HW2           1 RES     
    5333 OW          56.9640    12.7810    98.0300 OW            1 RES     
    5334 HW1         56.6260    13.6750    97.7400 HW1           1 RES     
    5335 HW2         57.9630    12.7700    97.9840 HW2           1 RES     
    5336 OW           0.3490    33.4130   106.0130 OW            1 RES     
    5337 HW1          1.1890    33.0230   106.3880 HW1           1 RES     
    5338 HW2          0.1460    32.9840   105.1320 HW2           1 RES     
    5339 OW          41.5610     9.7280    98.0440 OW            1 RES     
    5340 HW1         40.6280     9.3780    98.1250 HW1           1 RES     
    5341 HW2         41.5430    10.7280    98.0310 HW2           1 RES     
    5342 OW           0.7340    22.3930   103.9920 OW            1 RES     
    5343 HW1          0.7940    23.3850   103.8860 HW1           1 RES     
    5344 HW2          1.6530    22.0110   104.0900 HW2           1 RES     
    5345 OW          23.5030    14.6660    90.6220 OW            1 RES     
    5346 HW1         22.8420    14.5720    89.8790 HW1           1 RES     
    5347 HW2         23.9610    13.7900    90.7750 HW2           1 RES     
    5348 OW          34.5770    42.3660    96.3820 OW            1 RES     
    5349 HW1         34.5720    41.3720    96.2820 HW1           1 RES     
    5350 HW2         35.5200    42.6880    96.4690 HW2           1 RES     
    5351 OW          62.0110    48.2310   101.5710 OW            1 RES     
    5352 HW1         61.7900    47.3290   101.2020 HW1           1 RES     
    5353 HW2         61.1670    48.7060   101.8210 HW2           1 RES     
    5354 OW          28.0660    27.7130    90.2830 OW            1 RES     
    5355 HW1         28.1670    28.6300    89.8980 HW1           1 RES     
    5356 HW2         28.3120    27.0320    89.5930 HW2           1 RES     
    5357 OW          30.5310     5.7990   104.3940 OW            1 RES     
    5358 HW1         30.9350     6.5270   104.9480 HW1           1 RES     
    5359 HW2         30.2240     5.0570   104.9910 HW2           1 RES     
    5360 OW          12.2740     8.6650    99.1210 OW            1 RES     
    5361 HW1         13.1870     8.3050    98.9320 HW1           1 RES     
    5362 HW2         11.6870     7.9260    99.4530 HW2           1 RES     
    5363 OW          32.7250    40.4560    93.8900 OW            1 RES     
    5364 HW1         33.6050    40.4520    94.3630 HW1           1 RES     
    5365 HW2         32.6100    39.5970    93.3910 HW2           1 RES     
    5366 OW          24.7590    32.4600   100.2990 OW            1 RES     
    5367 HW1         25.7000    32.6060   100.6010 HW1           1 RES     
    5368 HW2         24.4600    33.2390    99.7470 HW2           1 RES     
    5369 OW          13.5380    33.5970    88.7110 OW            1 RES     
    5370 HW1         14.4940    33.8330    88.5400 HW1           1 RES     
    5371 HW2         12.9440    34.2560    88.2510 HW2           1 RES     
    5372 OW          53.4090    31.2120    96.0400 OW            1 RES     
    5373 HW1         52.4920    30.8460    95.8820 HW1           1 RES     
    5374 HW2         53.3690    32.2100    96.0750 HW2           1 RES     
    5375 OW           5.8350     8.9510    88.3270 OW            1 RES     
    5376 HW1          6.0360     8.4640    89.1760 HW1           1 RES     
    5377 HW2          6.5010     8.6920    87.6270 HW2           1 RES     
    5378 OW          61.5170     2.9610   103.5460 OW            1 RES     
    5379 HW1         60.5180     2.9420   103.5470 HW1           1 RES     
    5380 HW2         61.8700     2.0250   103.5530 HW2           1 RES     
    5381 OW          42.8200    20.9600   106.7700 OW            1 RES     
    5382 HW1         43.2110    20.5490   107.5930 HW1           1 RES     
    5383 HW2         41.8320    21.0590   106.8830 HW2           1 RES     
    5384 OW          47.9480    35.8120    99.4750 OW            1 RES     
    5385 HW1         48.4620    34.9760    99.2870 HW1           1 RES     
    5386 HW2         47.1230    35.5870    99.9940 HW2           1 RES     
    5387 OW          53.7610    16.6520    88.2340 OW            1 RES     
    5388 HW1         53.8050    17.6490    88.1900 HW1           1 RES     
    5389 HW2         52.9110    16.3740    88.6820 HW2           1 RES     
    5390 OW          17.9140    41.1510    93.1500 OW            1 RES     
    5391 HW1         18.6600    40.8790    93.7570 HW1           1 RES     
    5392 HW2         17.0400    41.0320    93.6200 HW2           1 RES     
    5393 OW          42.1140    27.7210    98.6820 OW            1 RES     
    5394 HW1         43.0570    27.7790    98.3560 HW1           1 RES     
    5395 HW2         41.5160    28.2360    98.0670 HW2           1 RES     
    5396 OW          21.3700    30.0600   107.6600 OW            1 RES     
    5397 HW1         22.0200    30.5880   107.1140 HW1           1 RES     
    5398 HW2         20.4570    30.4590   107.5710 HW2           1 RES     
    5399 OW          37.7680    24.4540   109.0290 OW            1 RES     
    5400 HW1         37.8820    25.2730   109.5900 HW1           1 RES     
    5401 HW2         38.6310    23.9500   108.9940 HW2           1 RES     
    5402 OW          42.4390    44.0330   103.7420 OW            1 RES     
    5403 HW1         42.1180    44.9490   103.5030 HW1           1 RES     
    5404 HW2         41.9470    43.3540   103.1980 HW2           1 RES     
    5405 OW          11.0350    18.6090    92.2130 OW            1 RES     
    5406 HW1         11.4120    18.2170    91.3740 HW1           1 RES     
    5407 HW2         11.7720    18.7570    92.8730 HW2           1 RES     
    5408 OW          52.9100     4.7470   100.2710 OW            1 RES     
    5409 HW1         53.1390     3.9290    99.7450 HW1           1 RES     
    5410 HW2         52.2090     5.2700    99.7860 HW2           1 RES     
    5411 OW          28.3440     1.8720    99.6600 OW            1 RES     
    5412 HW1         27.4700     2.3430    99.5470 HW1           1 RES     
    5413 HW2         28.4460     1.1820    98.9430 HW2           1 RES     
    5414 OW          10.4210    22.9140   106.0520 OW            1 RES     
    5415 HW1          9.8030    23.5500   105.5900 HW1           1 RES     
    5416 HW2         10.0990    21.9770   105.9170 HW2           1 RES     
    5417 OW          46.3080    42.7120    90.9730 OW            1 RES     
    5418 HW1         46.8390    43.2930    90.3580 HW1           1 RES     
    5419 HW2         46.3070    41.7740    90.6270 HW2           1 RES     
    5420 OW          50.3860     6.8860    86.7440 OW            1 RES     
    5421 HW1         49.8470     6.2370    86.2080 HW1           1 RES     
    5422 HW2         51.0790     7.3070    86.1590 HW2           1 RES     
    5423 OW          42.7140    18.9570    95.4420 OW            1 RES     
    5424 HW1         41.7860    19.3210    95.5130 HW1           1 RES     
    5425 HW2         42.6750    17.9620    95.3460 HW2           1 RES     
    5426 OW          62.0570    19.3180   104.5370 OW            1 RES     
    5427 HW1         61.7930    18.5460   103.9600 HW1           1 RES     
    5428 HW2         62.6290    18.9910   105.2900 HW2           1 RES     
    5429 OW          53.1850    43.5220   109.8060 OW            1 RES     
    5430 HW1         53.2810    44.4440   110.1810 HW1           1 RES     
    5431 HW2         52.2370    43.2180   109.9080 HW2           1 RES     
    5432 OW          27.5900    34.8150   105.4470 OW            1 RES     
    5433 HW1         28.5000    34.4400   105.2730 HW1           1 RES     
    5434 HW2         27.5900    35.2990   106.3220 HW2           1 RES     
    5435 OW           7.6050    20.4540   101.7260 OW            1 RES     
    5436 HW1          7.4550    19.5120   101.4260 HW1           1 RES     
    5437 HW2          6.9600    21.0590   101.2590 HW2           1 RES     
    5438 OW          22.1930     5.9320   102.3010 OW            1 RES     
    5439 HW1         22.9830     5.3260   102.2130 HW1           1 RES     
    5440 HW2         21.7680     6.0580   101.4040 HW2           1 RES     
    5441 OW          57.5490    17.7720    92.0120 OW            1 RES     
    5442 HW1         56.6630    17.7450    92.4740 HW1           1 RES     
    5443 HW2         57.4100    17.7550    91.0220 HW2           1 RES     
    5444 OW          60.8230     4.0960   107.4140 OW            1 RES     
    5445 HW1         59.8770     4.4190   107.4330 HW1           1 RES     
    5446 HW2         61.4420     4.8800   107.3550 HW2           1 RES     
    5447 OW           3.1540    45.7550    93.2580 OW            1 RES     
    5448 HW1          2.5850    45.1200    92.7360 HW1           1 RES     
    5449 HW2          3.0300    45.5880    94.2360 HW2           1 RES     
    5450 OW           3.6660    17.7530    90.0740 OW            1 RES     
    5451 HW1          2.8750    17.9440    90.6550 HW1           1 RES     
    5452 HW2          3.3560    17.5430    89.1470 HW2           1 RES     
    5453 OW          60.7510    45.3280   109.5740 OW            1 RES     
    5454 HW1         61.7270    45.5400   109.5390 HW1           1 RES     
    5455 HW2         60.2290    46.0970   109.2040 HW2           1 RES     
    5456 OW           7.6640    29.0270   106.1960 OW            1 RES     
    5457 HW1          7.3530    28.0810   106.2830 HW1           1 RES     
    5458 HW2          6.9370    29.5820   105.7920 HW2           1 RES     
    5459 OW          51.7500    12.6170    86.8090 OW            1 RES     
    5460 HW1         51.4710    13.3230    86.1590 HW1           1 RES     
    5461 HW2         50.9450    12.2620    87.2840 HW2           1 RES     
    5462 OW          57.7480    44.2040   104.5680 OW            1 RES     
    5463 HW1         58.3380    43.9870   105.3460 HW1           1 RES     
    5464 HW2         58.0420    43.6790   103.7700 HW2           1 RES     
    5465 OW          25.3320    22.1270    91.7160 OW            1 RES     
    5466 HW1         25.2570    21.3520    91.0900 HW1           1 RES     
    5467 HW2         26.1570    22.0290    92.2720 HW2           1 RES     
    5468 OW          37.6860    20.6700   103.5670 OW            1 RES     
    5469 HW1         36.7160    20.6450   103.8100 HW1           1 RES     
    5470 HW2         37.8050    21.1870   102.7200 HW2           1 RES     
    5471 OW          26.7330    30.2570    90.6660 OW            1 RES     
    5472 HW1         27.1630    30.4830    91.5400 HW1           1 RES     
    5473 HW2         26.3160    31.0780    90.2770 HW2           1 RES     
    5474 OW          38.3200    25.6670    88.9900 OW            1 RES     
    5475 HW1         39.1520    25.4930    88.4650 HW1           1 RES     
    5476 HW2         38.2410    26.6460    89.1770 HW2           1 RES     
    5477 OW          14.4040    48.4990   111.2500 OW            1 RES     
    5478 HW1         13.4640    48.8400   111.2630 HW1           1 RES     
    5479 HW2         14.3950    47.4990   111.2440 HW2           1 RES     
    5480 OW          11.9670     4.9100   100.3120 OW            1 RES     
    5481 HW1         12.2810     4.2590    99.6220 HW1           1 RES     
    5482 HW2         12.1530     5.8420   100.0000 HW2           1 RES     
    5483 OW          35.0060     2.0320    98.1160 OW            1 RES     
    5484 HW1         35.1570     1.3910    97.3640 HW1           1 RES     
    5485 HW2         34.9510     2.9630    97.7550 HW2           1 RES     
    5486 OW           5.7990    23.0160   107.3130 OW            1 RES     
    5487 HW1          5.2620    22.2280   107.6110 HW1           1 RES     
    5488 HW2          6.7730    22.7970   107.3680 HW2           1 RES     
    5489 OW          47.2750    37.9350    91.1250 OW            1 RES     
    5490 HW1         47.5260    37.8820    92.0910 HW1           1 RES     
    5491 HW2         46.8280    37.0830    90.8490 HW2           1 RES     
    5492 OW          45.7950    21.9650   103.7500 OW            1 RES     
    5493 HW1         46.1360    22.7290   104.2970 HW1           1 RES     
    5494 HW2         46.1860    22.0110   102.8310 HW2           1 RES     
    5495 OW          33.3610     9.4110   106.4670 OW            1 RES     
    5496 HW1         32.3920     9.1740   106.5230 HW1           1 RES     
    5497 HW2         33.8590     8.6760   106.0060 HW2           1 RES     
    5498 OW          48.7860    41.7560    98.4780 OW            1 RES     
    5499 HW1         48.2380    42.5780    98.6240 HW1           1 RES     
    5500 HW2         49.7110    42.0160    98.2000 HW2           1 RES     
    5501 OW          47.2530    31.3580    89.8980 OW            1 RES     
    5502 HW1         46.4990    31.6840    89.3290 HW1           1 RES     
    5503 HW2         48.0510    31.9470    89.7630 HW2           1 RES     
    5504 OW          12.3090    13.8970   103.7960 OW            1 RES     
    5505 HW1         12.1870    14.0360   102.8130 HW1           1 RES     
    5506 HW2         13.2640    14.0640   104.0410 HW2           1 RES     
    5507 OW           9.3500    46.1370   102.5990 OW            1 RES     
    5508 HW1          9.5720    45.1870   102.3840 HW1           1 RES     
    5509 HW2          8.3860    46.3100   102.3920 HW2           1 RES     
    5510 OW          48.5550    29.5060    91.7030 OW            1 RES     
    5511 HW1         48.5130    29.1300    92.6280 HW1           1 RES     
    5512 HW2         47.6420    29.7960    91.4180 HW2           1 RES     
    5513 OW          13.1690    31.8360   101.2870 OW            1 RES     
    5514 HW1         12.6410    32.5990   100.9160 HW1           1 RES     
    5515 HW2         12.6590    31.4080   102.0330 HW2           1 RES     
    5516 OW           5.0920     1.3840    87.3590 OW            1 RES     
    5517 HW1          5.8320     1.5530    86.7100 HW1           1 RES     
    5518 HW2          4.5070     0.6490    87.0150 HW2           1 RES     
    5519 OW          16.1250    44.8480   102.5420 OW            1 RES     
    5520 HW1         16.5090    45.7620   102.6710 HW1           1 RES     
    5521 HW2         15.1430    44.9200   102.3660 HW2           1 RES     
    5522 OW          60.7230    30.2590   104.2960 OW            1 RES     
    5523 HW1         59.8930    30.7600   104.5390 HW1           1 RES     
    5524 HW2         61.4820    30.9020   104.1940 HW2           1 RES     
    5525 OW          21.1040    20.7720   106.1240 OW            1 RES     
    5526 HW1         20.2050    20.4260   105.8600 HW1           1 RES     
    5527 HW2         21.4080    20.3120   106.9590 HW2           1 RES     
    5528 OW          30.5890    35.3460   109.4470 OW            1 RES     
    5529 HW1         29.9280    35.4750   110.1850 HW1           1 RES     
    5530 HW2         30.5970    34.3850   109.1700 HW2           1 RES     
    5531 OW          61.6420    44.6470    86.5210 OW            1 RES     
    5532 HW1         61.0310    45.4350    86.4510 HW1           1 RES     
    5533 HW2         62.5910    44.9540    86.4430 HW2           1 RES     
    5534 OW          47.6660    29.0000   105.4700 OW            1 RES     
    5535 HW1         48.5310    28.8640   104.9890 HW1           1 RES     
    5536 HW2         47.5060    29.9790   105.6000 HW2           1 RES     
    5537 OW          35.7230    43.8640   103.9210 OW            1 RES     
    5538 HW1         35.8520    44.8550   103.9440 HW1           1 RES     
    5539 HW2         36.6010    43.4160   103.7520 HW2           1 RES     
    5540 OW          30.3690    43.4420    92.1580 OW            1 RES     
    5541 HW1         31.3490    43.5680    92.0080 HW1           1 RES     
    5542 HW2         30.0760    42.5810    91.7440 HW2           1 RES     
    5543 OW          47.1310    32.0350   109.2490 OW            1 RES     
    5544 HW1         47.3950    32.3500   108.3390 HW1           1 RES     
    5545 HW2         47.8030    31.3740   109.5830 HW2           1 RES     
    5546 OW          43.1000    37.5200   105.2890 OW            1 RES     
    5547 HW1         43.7730    36.7820   105.2690 HW1           1 RES     
    5548 HW2         42.1790    37.1330   105.2550 HW2           1 RES     
    5549 OW          21.5920    31.9920    92.6000 OW            1 RES     
    5550 HW1         20.6370    31.7200    92.4950 HW1           1 RES     
    5551 HW2         21.8650    31.8920    93.5570 HW2           1 RES     
    5552 OW          25.1900    13.1350    99.8440 OW            1 RES     
    5553 HW1         25.6840    12.2670    99.8630 HW1           1 RES     
    5554 HW2         25.2830    13.5530    98.9400 HW2           1 RES     
    5555 OW           6.5970    36.6070    92.3570 OW            1 RES     
    5556 HW1          5.9210    35.9950    91.9480 HW1           1 RES     
    5557 HW2          6.2860    37.5540    92.2690 HW2           1 RES     
    5558 OW          38.8810    45.2240    99.7400 OW            1 RES     
    5559 HW1         38.2730    45.5260   100.4730 HW1           1 RES     
    5560 HW2         38.8560    45.8860    98.9910 HW2           1 RES     
    5561 OW          14.8600    17.1970    86.8990 OW            1 RES     
    5562 HW1         13.9050    17.0740    87.1670 HW1           1 RES     
    5563 HW2         15.0350    18.1660    86.7220 HW2           1 RES     
    5564 OW          12.7630     9.1160   105.3140 OW            1 RES     
    5565 HW1         11.9740     9.6500   105.0140 HW1           1 RES     
    5566 HW2         12.4600     8.2090   105.6070 HW2           1 RES     
    5567 OW          51.4500    40.1790   110.1940 OW            1 RES     
    5568 HW1         50.4930    40.4460   110.3040 HW1           1 RES     
    5569 HW2         51.5340    39.1880   110.2940 HW2           1 RES     
    5570 OW          17.8280    16.6440   100.0540 OW            1 RES     
    5571 HW1         18.6860    16.1330   100.0240 HW1           1 RES     
    5572 HW2         17.1020    16.1020    99.6290 HW2           1 RES     
    5573 OW           5.1400    34.3020   110.1070 OW            1 RES     
    5574 HW1          4.4580    35.0240   109.9980 HW1           1 RES     
    5575 HW2          4.8290    33.6500   110.7980 HW2           1 RES     
    5576 OW          53.0120    28.3810   110.2510 OW            1 RES     
    5577 HW1         52.8790    28.2200   109.2740 HW1           1 RES     
    5578 HW2         52.8880    27.5240   110.7520 HW2           1 RES     
    5579 OW           4.8340    17.2230    92.7400 OW            1 RES     
    5580 HW1          5.5670    17.8860    92.5910 HW1           1 RES     
    5581 HW2          3.9510    17.6550    92.5530 HW2           1 RES     
    5582 OW          42.5670    24.1150    96.7400 OW            1 RES     
    5583 HW1         42.1460    24.8520    96.2140 HW1           1 RES     
    5584 HW2         43.1240    24.5040    97.4750 HW2           1 RES     
    5585 OW          28.5090    16.0170   104.2180 OW            1 RES     
    5586 HW1         29.1050    16.3100   104.9650 HW1           1 RES     
    5587 HW2         27.5880    16.3780   104.3640 HW2           1 RES     
    5588 OW          48.3490     9.5490    93.5880 OW            1 RES     
    5589 HW1         47.9510     9.8180    94.4640 HW1           1 RES     
    5590 HW2         49.0030    10.2450    93.2900 HW2           1 RES     
    5591 OW          57.5490    23.9840   104.7750 OW            1 RES     
    5592 HW1         58.2300    24.6530   104.4800 HW1           1 RES     
    5593 HW2         58.0030    23.1200   104.9950 HW2           1 RES     
    5594 OW          49.2870    40.1800   104.8590 OW            1 RES     
    5595 HW1         48.5360    39.5290   104.9660 HW1           1 RES     
    5596 HW2         48.9200    41.0730   104.5990 HW2           1 RES     
    5597 OW          46.3290    11.9920    97.0190 OW            1 RES     
    5598 HW1         46.3300    11.0680    97.4010 HW1           1 RES     
    5599 HW2         45.6610    12.0460    96.2770 HW2           1 RES     
    5600 OW          60.6300    24.3100    88.5970 OW            1 RES     
    5601 HW1         59.8830    23.6680    88.7670 HW1           1 RES     
    5602 HW2         61.4280    23.8120    88.2580 HW2           1 RES     
    5603 OW          14.4320    21.0980    99.5000 OW            1 RES     
    5604 HW1         15.2460    21.6780    99.4950 HW1           1 RES     
    5605 HW2         14.7030    20.1420    99.6130 HW2           1 RES     
    5606 OW          49.0240    10.9650    98.2580 OW            1 RES     
    5607 HW1         48.2540    10.3660    98.4760 HW1           1 RES     
    5608 HW2         48.7920    11.9080    98.4990 HW2           1 RES     
    5609 OW           0.4520    16.9770    92.3350 OW            1 RES     
    5610 HW1          0.6080    17.9630    92.3760 HW1           1 RES     
    5611 HW2          0.0010    16.6750    93.1750 HW2           1 RES     
    5612 OW          45.0830    42.0010    93.4740 OW            1 RES     
    5613 HW1         44.5680    41.1760    93.7020 HW1           1 RES     
    5614 HW2         44.4550    42.7060    93.1440 HW2           1 RES     
    5615 OW          10.0880    19.4900    88.0720 OW            1 RES     
    5616 HW1         10.8990    18.9060    88.0930 HW1           1 RES     
    5617 HW2         10.3680    20.4500    88.0790 HW2           1 RES     
    5618 OW          62.3050    21.7100   102.4950 OW            1 RES     
    5619 HW1         61.8820    20.8580   102.8030 HW1           1 RES     
    5620 HW2         62.3320    21.7270   101.4950 HW2           1 RES     
    5621 OW          47.9070    38.2890    99.6260 OW            1 RES     
    5622 HW1         47.6220    39.2430    99.5390 HW1           1 RES     
    5623 HW2         47.9820    37.8790    98.7170 HW2           1 RES     
    5624 OW          29.6870    23.1480   104.4490 OW            1 RES     
    5625 HW1         30.1520    24.0140   104.6290 HW1           1 RES     
    5626 HW2         28.7900    23.3270   104.0460 HW2           1 RES     
    5627 OW          18.6200     9.6800    96.2720 OW            1 RES     
    5628 HW1         17.8260    10.2640    96.1080 HW1           1 RES     
    5629 HW2         18.3210     8.7300    96.3710 HW2           1 RES     
    5630 OW          16.6470    34.6090   110.2490 OW            1 RES     
    5631 HW1         17.3590    34.0300   109.8530 HW1           1 RES     
    5632 HW2         16.5130    34.3640   111.2090 HW2           1 RES     
    5633 OW          30.2260     9.9720   100.0790 OW            1 RES     
    5634 HW1         31.0660     9.5030    99.8060 HW1           1 RES     
    5635 HW2         29.4870     9.3050   100.1700 HW2           1 RES     
    5636 OW           4.1420     7.7780   108.9870 OW            1 RES     
    5637 HW1          4.6480     6.9170   109.0390 HW1           1 RES     
    5638 HW2          3.1610     7.5860   108.9470 HW2           1 RES     
    5639 OW          49.8080    39.6540    87.3500 OW            1 RES     
    5640 HW1         50.1050    38.7570    87.0250 HW1           1 RES     
    5641 HW2         48.8880    39.5820    87.7360 HW2           1 RES     
    5642 OW           6.0350    47.3610    86.5250 OW            1 RES     
    5643 HW1          6.2950    48.3260    86.5300 HW1           1 RES     
    5644 HW2          5.0380    47.2840    86.5320 HW2           1 RES     
    5645 OW          32.3420    45.6040    87.2870 OW            1 RES     
    5646 HW1         32.6620    46.5220    87.0540 HW1           1 RES     
    5647 HW2         31.4220    45.6590    87.6760 HW2           1 RES     
    5648 OW           6.0890    33.1110    88.0770 OW            1 RES     
    5649 HW1          6.4910    34.0170    87.9540 HW1           1 RES     
    5650 HW2          5.1070    33.1530    87.8960 HW2           1 RES     
    5651 OW          56.0740    10.2500   101.3040 OW            1 RES     
    5652 HW1         56.0970    11.2430   101.1920 HW1           1 RES     
    5653 HW2         56.1480    10.0220   102.2750 HW2           1 RES     
    5654 OW          35.2920    40.2620    87.1520 OW            1 RES     
    5655 HW1         35.5120    40.7610    87.9890 HW1           1 RES     
    5656 HW2         34.3450    39.9440    87.1910 HW2           1 RES     
    5657 OW          42.7190    44.7930    94.7200 OW            1 RES     
    5658 HW1         42.6640    45.6770    95.1820 HW1           1 RES     
    5659 HW2         43.6600    44.6270    94.4260 HW2           1 RES     
    5660 OW           4.4750    28.3720   101.1590 OW            1 RES     
    5661 HW1          3.5960    27.9240   101.3190 HW1           1 RES     
    5662 HW2          5.1020    27.7280   100.7200 HW2           1 RES     
    5663 OW          12.7120    36.3980    87.6950 OW            1 RES     
    5664 HW1         12.4840    35.8990    86.8600 HW1           1 RES     
    5665 HW2         12.4810    37.3640    87.5810 HW2           1 RES     
    5666 OW          25.6100    43.1400   104.4290 OW            1 RES     
    5667 HW1         26.1750    42.3170   104.3720 HW1           1 RES     
    5668 HW2         24.7460    42.9840   103.9490 HW2           1 RES     
    5669 OW          19.5740     0.0100   101.9630 OW            1 RES     
    5670 HW1         18.6970     0.2120   101.5280 HW1           1 RES     
    5671 HW2         20.3180     0.3530   101.3880 HW2           1 RES     
    5672 OW          37.5860    32.3520   102.2520 OW            1 RES     
    5673 HW1         36.6020    32.4360   102.0980 HW1           1 RES     
    5674 HW2         37.8760    31.4160   102.0510 HW2           1 RES     
    5675 OW           3.0610     2.5270   103.1920 OW            1 RES     
    5676 HW1          2.1590     2.8700   103.4490 HW1           1 RES     
    5677 HW2          3.0420     2.2180   102.2410 HW2           1 RES     
    5678 OW           6.4610    10.2930    93.2690 OW            1 RES     
    5679 HW1          6.8890    10.1510    92.3780 HW1           1 RES     
    5680 HW2          7.1400    10.1620    93.9910 HW2           1 RES     
    5681 OW          42.8820    46.8020    90.7360 OW            1 RES     
    5682 HW1         42.4160    46.5190    91.5740 HW1           1 RES     
    5683 HW2         43.3300    46.0100    90.3210 HW2           1 RES     
    5684 OW          32.5720    37.1050    93.8750 OW            1 RES     
    5685 HW1         32.5060    36.2100    94.3160 HW1           1 RES     
    5686 HW2         33.2480    37.6640    94.3560 HW2           1 RES     
    5687 OW          18.9790    40.0780   110.7400 OW            1 RES     
    5688 HW1         19.9680    39.9370   110.7690 HW1           1 RES     
    5689 HW2         18.7820    41.0560   110.6670 HW2           1 RES     
    5690 OW          31.1150    39.3660    97.7250 OW            1 RES     
    5691 HW1         30.3650    38.7610    97.9870 HW1           1 RES     
    5692 HW2         31.9660    39.0450    98.1430 HW2           1 RES     
    5693 OW           3.7770    43.6240    97.0780 OW            1 RES     
    5694 HW1          4.6580    43.5840    97.5480 HW1           1 RES     
    5695 HW2          3.7450    42.9210    96.3680 HW2           1 RES     
    5696 OW          48.2920    10.2910   106.2400 OW            1 RES     
    5697 HW1         48.2640     9.3020   106.3800 HW1           1 RES     
    5698 HW2         47.3760    10.6720   106.3650 HW2           1 RES     
    5699 OW          14.8940    46.0620    96.5950 OW            1 RES     
    5700 HW1         14.1720    46.7430    96.4780 HW1           1 RES     
    5701 HW2         14.5990    45.3750    97.2600 HW2           1 RES     
    5702 OW          27.9770     5.9380    88.9690 OW            1 RES     
    5703 HW1         27.0830     5.5530    88.7420 HW1           1 RES     
    5704 HW2         28.6760     5.5310    88.3800 HW2           1 RES     
    5705 OW          16.4470    24.2030    90.6750 OW            1 RES     
    5706 HW1         17.2080    23.5600    90.7550 HW1           1 RES     
    5707 HW2         16.8030    25.1370    90.6310 HW2           1 RES     
    5708 OW          42.8260    21.0960   100.0640 OW            1 RES     
    5709 HW1         42.5770    21.0730   101.0320 HW1           1 RES     
    5710 HW2         42.0390    20.8260    99.5100 HW2           1 RES     
    5711 OW          46.7290    26.3760    88.0700 OW            1 RES     
    5712 HW1         47.3070    26.3260    87.2560 HW1           1 RES     
    5713 HW2         45.7690    26.4250    87.7950 HW2           1 RES     
    5714 OW          53.3570    16.4310    99.3550 OW            1 RES     
    5715 HW1         53.0950    15.4760    99.2250 HW1           1 RES     
    5716 HW2         54.3500    16.4940    99.4550 HW2           1 RES     
    5717 OW          54.7080    35.0460    89.6050 OW            1 RES     
    5718 HW1         54.5150    35.6470    90.3800 HW1           1 RES     
    5719 HW2         55.6060    35.2690    89.2250 HW2           1 RES     
    5720 OW          20.2680    10.0920    91.4090 OW            1 RES     
    5721 HW1         19.8220     9.5660    92.1320 HW1           1 RES     
    5722 HW2         19.5830    10.6270    90.9140 HW2           1 RES     
    5723 OW          10.7340     3.3250   107.7880 OW            1 RES     
    5724 HW1         11.1630     2.4680   108.0690 HW1           1 RES     
    5725 HW2          9.9750     3.1310   107.1660 HW2           1 RES     
    5726 OW          39.2640    32.1570   103.8290 OW            1 RES     
    5727 HW1         40.2150    31.8510   103.8540 HW1           1 RES     
    5728 HW2         38.6780    31.4650   104.2520 HW2           1 RES     
    5729 OW          39.0460     9.6580    95.8240 OW            1 RES     
    5730 HW1         38.2030     9.1430    95.6690 HW1           1 RES     
    5731 HW2         39.0300    10.0550    96.7420 HW2           1 RES     
    5732 OW          56.0060     3.8600   105.5040 OW            1 RES     
    5733 HW1         55.1850     4.0250   106.0500 HW1           1 RES     
    5734 HW2         56.3800     4.7330   105.1900 HW2           1 RES     
    5735 OW          47.5900    44.1380   104.9840 OW            1 RES     
    5736 HW1         48.1920    43.6640   104.3410 HW1           1 RES     
    5737 HW2         48.1420    44.6400   105.6500 HW2           1 RES     
    5738 OW          41.1130    16.0150   102.9850 OW            1 RES     
    5739 HW1         40.8570    15.6790   102.0790 HW1           1 RES     
    5740 HW2         40.3000    16.0590   103.5660 HW2           1 RES     
    5741 OW          42.3170    25.2360   109.3340 OW            1 RES     
    5742 HW1         43.0700    24.6720   108.9960 HW1           1 RES     
    5743 HW2         41.5020    25.0730   108.7770 HW2           1 RES     
    5744 OW          24.6950    48.0270    88.4370 OW            1 RES     
    5745 HW1         25.5350    47.5660    88.7190 HW1           1 RES     
    5746 HW2         23.9560    47.3580    88.3580 HW2           1 RES     
    5747 OW          55.5150     9.6800    88.9780 OW            1 RES     
    5748 HW1         55.7770     8.7260    89.1200 HW1           1 RES     
    5749 HW2         55.7820     9.9670    88.0580 HW2           1 RES     
    5750 OW          49.6030    21.7290   100.7750 OW            1 RES     
    5751 HW1         48.6330    21.4880   100.7870 HW1           1 RES     
    5752 HW2         50.1450    20.9200   100.5460 HW2           1 RES     
    5753 OW          43.8610    21.6520    91.4310 OW            1 RES     
    5754 HW1         44.4990    20.9530    91.1100 HW1           1 RES     
    5755 HW2         43.1320    21.7730    90.7570 HW2           1 RES     
    5756 OW          58.0180     9.0880   103.5640 OW            1 RES     
    5757 HW1         57.1100     8.8260   103.8880 HW1           1 RES     
    5758 HW2         58.0430    10.0740   103.4010 HW2           1 RES     
    5759 OW          28.4110     4.0190   103.7970 OW            1 RES     
    5760 HW1         27.9670     4.8910   104.0030 HW1           1 RES     
    5761 HW2         29.2230     4.1830   103.2370 HW2           1 RES     
    5762 OW          15.3380    14.4410    88.1580 OW            1 RES     
    5763 HW1         15.0050    15.3780    88.2590 HW1           1 RES     
    5764 HW2         16.3280    14.4220    88.2970 HW2           1 RES     
    5765 OW          25.0650    46.7740    93.2860 OW            1 RES     
    5766 HW1         25.5690    46.3750    94.0510 HW1           1 RES     
    5767 HW2         25.4300    47.6830    93.0830 HW2           1 RES     
    5768 OW          36.1700     6.1610    87.9700 OW            1 RES     
    5769 HW1         36.9040     5.8270    88.5600 HW1           1 RES     
    5770 HW2         35.8150     7.0220    88.3340 HW2           1 RES     
    5771 OW          42.8670    35.3650   101.8020 OW            1 RES     
    5772 HW1         42.8110    36.2300   101.3050 HW1           1 RES     
    5773 HW2         43.4300    35.4850   102.6200 HW2           1 RES     
    5774 OW          33.3700    44.2280   110.2440 OW            1 RES     
    5775 HW1         32.6510    43.5360   110.2890 HW1           1 RES     
    5776 HW2         32.9590    45.1400   110.2730 HW2           1 RES     
    5777 OW           0.5970    23.3670    86.3560 OW            1 RES     
    5778 HW1          0.0030    24.1540    86.1940 HW1           1 RES     
    5779 HW2          0.0370    22.5540    86.5190 HW2           1 RES     
    5780 OW          45.1900    33.8240    99.3700 OW            1 RES     
    5781 HW1         44.2990    33.4480    99.1170 HW1           1 RES     
    5782 HW2         45.1270    34.8200    99.4330 HW2           1 RES     
    5783 OW          61.8920    20.2090    90.8750 OW            1 RES     
    5784 HW1         61.5600    20.7010    91.6800 HW1           1 RES     
    5785 HW2         61.2250    19.5120    90.6120 HW2           1 RES     
    5786 OW          54.3870    26.1100    88.6900 OW            1 RES     
    5787 HW1         53.9880    26.7390    89.3560 HW1           1 RES     
    5788 HW2         55.0380    26.6040    88.1130 HW2           1 RES     
    5789 OW          20.5850    34.9780    96.8450 OW            1 RES     
    5790 HW1         20.7230    35.9650    96.9120 HW1           1 RES     
    5791 HW2         21.4460    34.5070    97.0400 HW2           1 RES     
    5792 OW          50.5460    43.3530    88.5660 OW            1 RES     
    5793 HW1         50.4550    44.2910    88.2330 HW1           1 RES     
    5794 HW2         49.6410    42.9330    88.6350 HW2           1 RES     
    5795 OW          36.0350    15.6060    89.6780 OW            1 RES     
    5796 HW1         35.1030    15.3310    89.4470 HW1           1 RES     
    5797 HW2         36.0120    16.2670    90.4280 HW2           1 RES     
    5798 OW          20.9610     1.2220    96.4340 OW            1 RES     
    5799 HW1         20.5410     0.4400    96.8930 HW1           1 RES     
    5800 HW2         20.6990     2.0650    96.9040 HW2           1 RES     
    5801 OW          30.3890    32.5180    95.3390 OW            1 RES     
    5802 HW1         31.1850    32.1740    95.8360 HW1           1 RES     
    5803 HW2         30.6490    33.3240    94.8080 HW2           1 RES     
    5804 OW          12.3890     1.1450    98.1680 OW            1 RES     
    5805 HW1         12.5820     0.2890    97.6900 HW1           1 RES     
    5806 HW2         12.5710     1.0310    99.1440 HW2           1 RES     
    5807 OW          44.5680    32.5500   103.4820 OW            1 RES     
    5808 HW1         44.2680    31.8190   104.0930 HW1           1 RES     
    5809 HW2         43.9330    33.3200   103.5450 HW2           1 RES     
    5810 OW          59.5670    35.7430   105.7230 OW            1 RES     
    5811 HW1         60.3130    35.3510   105.1860 HW1           1 RES     
    5812 HW2         59.5640    35.3370   106.6370 HW2           1 RES     
    5813 OW          54.0690    24.6430   107.3650 OW            1 RES     
    5814 HW1         53.0990    24.4110   107.3130 HW1           1 RES     
    5815 HW2         54.1800    25.5050   107.8610 HW2           1 RES     
    5816 OW          36.7300    10.5210   101.7480 OW            1 RES     
    5817 HW1         37.2340     9.6600   101.8030 HW1           1 RES     
    5818 HW2         37.2400    11.1710   101.1850 HW2           1 RES     
    5819 OW          38.6620    13.9990    97.4770 OW            1 RES     
    5820 HW1         39.6430    13.9510    97.2920 HW1           1 RES     
    5821 HW2         38.2620    13.0850    97.3990 HW2           1 RES     
    5822 OW          23.2030     8.0780   109.1020 OW            1 RES     
    5823 HW1         24.1190     8.4760   109.0650 HW1           1 RES     
    5824 HW2         23.2720     7.0800   109.0960 HW2           1 RES     
    5825 OW          46.1160    28.4910    99.7360 OW            1 RES     
    5826 HW1         45.8060    27.7620   100.3450 HW1           1 RES     
    5827 HW2         45.7030    28.3720    98.8330 HW2           1 RES     
    5828 OW          14.3620    13.0780   102.2470 OW            1 RES     
    5829 HW1         15.0130    13.1820   102.9990 HW1           1 RES     
    5830 HW2         13.9330    12.1760   102.2990 HW2           1 RES     
    5831 OW          13.5700    46.3310    91.1310 OW            1 RES     
    5832 HW1         12.5990    46.4340    91.3430 HW1           1 RES     
    5833 HW2         13.7660    45.3730    90.9190 HW2           1 RES     
    5834 OW          32.8700    18.1320   100.9280 OW            1 RES     
    5835 HW1         32.6560    19.0660   100.6430 HW1           1 RES     
    5836 HW2         32.1410    17.5160   100.6280 HW2           1 RES     
    5837 OW          47.2070    20.4840    95.2420 OW            1 RES     
    5838 HW1         46.3770    20.0540    95.5950 HW1           1 RES     
    5839 HW2         47.8380    19.7770    94.9200 HW2           1 RES     
    5840 OW          21.9450    35.2590    88.8070 OW            1 RES     
    5841 HW1         21.5700    35.7600    88.0280 HW1           1 RES     
    5842 HW2         22.7950    34.8080    88.5370 HW2           1 RES     
    5843 OW          10.2100    28.7930   106.9290 OW            1 RES     
    5844 HW1          9.6220    28.0810   106.5460 HW1           1 RES     
    5845 HW2          9.7090    29.2970   107.6340 HW2           1 RES     
    5846 OW          50.5530     3.6440   104.7000 OW            1 RES     
    5847 HW1         51.1260     4.1200   104.0350 HW1           1 RES     
    5848 HW2         51.1320     3.1160   105.3230 HW2           1 RES     
    5849 OW          49.0650     4.2030   109.0260 OW            1 RES     
    5850 HW1         50.0610     4.2490   108.9620 HW1           1 RES     
    5851 HW2         48.6830     5.1250   108.9670 HW2           1 RES     
    5852 OW          43.8530    19.1710   100.7870 OW            1 RES     
    5853 HW1         43.8190    19.2210   101.7840 HW1           1 RES     
    5854 HW2         43.8970    18.2130   100.5020 HW2           1 RES     
    5855 OW          20.5720    44.4310   110.1940 OW            1 RES     
    5856 HW1         20.0640    45.0300   109.5750 HW1           1 RES     
    5857 HW2         21.5530    44.5710   110.0630 HW2           1 RES     
    5858 OW          16.3080    27.9240   102.6760 OW            1 RES     
    5859 HW1         16.0080    28.5650   101.9700 HW1           1 RES     
    5860 HW2         15.5460    27.3300   102.9330 HW2           1 RES     
    5861 OW          52.3680    38.7780    97.5820 OW            1 RES     
    5862 HW1         52.3150    39.6220    97.0510 HW1           1 RES     
    5863 HW2         53.0920    38.1950    97.2120 HW2           1 RES     
    5864 OW          14.8610    11.9090    99.7500 OW            1 RES     
    5865 HW1         15.3240    12.6910   100.1670 HW1           1 RES     
    5866 HW2         13.9090    11.8830   100.0550 HW2           1 RES     
    5867 OW           2.6400     4.2480    87.0880 OW            1 RES     
    5868 HW1          2.6090     4.0310    88.0630 HW1           1 RES     
    5869 HW2          3.5810     4.4610    86.8240 HW2           1 RES     
    5870 OW           4.4810    45.5320   100.9440 OW            1 RES     
    5871 HW1          3.9770    44.6700   100.9010 HW1           1 RES     
    5872 HW2          3.8670    46.2890   100.7200 HW2           1 RES     
    5873 OW           9.0670    19.8020    90.4830 OW            1 RES     
    5874 HW1          9.9840    20.1850    90.3720 HW1           1 RES     
    5875 HW2          8.3920    20.4370    90.1100 HW2           1 RES     
    5876 OW          44.7370     8.8080   101.5820 OW            1 RES     
    5877 HW1         45.2940     9.1990   100.8500 HW1           1 RES     
    5878 HW2         44.6600     9.4660   102.3310 HW2           1 RES     
    5879 OW          42.7920    23.3780   103.3600 OW            1 RES     
    5880 HW1         42.1370    22.7860   102.8930 HW1           1 RES     
    5881 HW2         42.3020    24.1110   103.8320 HW2           1 RES     
    5882 OW          35.0710    19.7500    90.4890 OW            1 RES     
    5883 HW1         34.8250    18.7850    90.5800 HW1           1 RES     
    5884 HW2         36.0480    19.8630    90.6700 HW2           1 RES     
    5885 OW          57.5170    22.2520    96.5720 OW            1 RES     
    5886 HW1         58.1490    21.4800    96.6300 HW1           1 RES     
    5887 HW2         57.8580    22.9130    95.9030 HW2           1 RES     
    5888 OW          24.4590     7.9400    94.3260 OW            1 RES     
    5889 HW1         24.3130     7.2970    95.0770 HW1           1 RES     
    5890 HW2         23.5750     8.2610    93.9850 HW2           1 RES     
    5891 OW          46.3790    16.2130    95.5590 OW            1 RES     
    5892 HW1         47.1740    16.6350    95.1240 HW1           1 RES     
    5893 HW2         45.6230    16.8680    95.5780 HW2           1 RES     
    5894 OW          51.7420    24.3470    89.3220 OW            1 RES     
    5895 HW1         52.6960    24.6110    89.1870 HW1           1 RES     
    5896 HW2         51.1490    25.1310    89.1340 HW2           1 RES     
    5897 OW          60.7530     8.0000    95.0690 OW            1 RES     
    5898 HW1         61.6490     7.6710    95.3660 HW1           1 RES     
    5899 HW2         60.5300     8.8450    95.5540 HW2           1 RES     
    5900 OW          13.5650     5.9080   106.3440 OW            1 RES     
    5901 HW1         13.9100     6.8230   106.5510 HW1           1 RES     
    5902 HW2         12.5710     5.9420   106.2410 HW2           1 RES     
    5903 OW          29.8580    42.1780    89.5390 OW            1 RES     
    5904 HW1         28.9450    42.4950    89.2820 HW1           1 RES     
    5905 HW2         30.0780    41.3470    89.0280 HW2           1 RES     
    5906 OW          14.9650    17.0650   110.1350 OW            1 RES     
    5907 HW1         14.1800    16.4520   110.2180 HW1           1 RES     
    5908 HW2         15.5250    17.0050   110.9620 HW2           1 RES     
    5909 OW          23.9560    46.0660   110.8170 OW            1 RES     
    5910 HW1         23.4760    46.4160   110.0130 HW1           1 RES     
    5911 HW2         23.3960    45.3670   111.2620 HW2           1 RES     
    5912 OW          59.7540    10.9160   110.1380 OW            1 RES     
    5913 HW1         59.5420     9.9400   110.1540 HW1           1 RES     
    5914 HW2         58.9040    11.4430   110.1720 HW2           1 RES     
    5915 OW          12.1670    26.1880    88.2550 OW            1 RES     
    5916 HW1         13.1670    26.1860    88.2450 HW1           1 RES     
    5917 HW2         11.8350    27.1310    88.2540 HW2           1 RES     
    5918 OW          54.3470    24.1650    98.4730 OW            1 RES     
    5919 HW1         53.4300    24.5630    98.4670 HW1           1 RES     
    5920 HW2         55.0290    24.8970    98.4920 HW2           1 RES     
    5921 OW          28.8260     2.7460    95.7320 OW            1 RES     
    5922 HW1         28.3010     3.5510    96.0070 HW1           1 RES     
    5923 HW2         29.0450     2.1990    96.5410 HW2           1 RES     
    5924 OW          60.5280    14.4290   109.5860 OW            1 RES     
    5925 HW1         59.9310    14.0170   110.2730 HW1           1 RES     
    5926 HW2         60.5860    15.4150   109.7430 HW2           1 RES     
    5927 OW           8.1670    13.8640    90.1970 OW            1 RES     
    5928 HW1          7.4640    14.5740    90.2110 HW1           1 RES     
    5929 HW2          8.9970    14.2250    89.7710 HW2           1 RES     
    5930 OW           6.0600    12.2800   100.0780 OW            1 RES     
    5931 HW1          5.0810    12.1120    99.9690 HW1           1 RES     
    5932 HW2          6.5190    12.1600    99.1980 HW2           1 RES     
    5933 OW          60.0660     0.5030    93.8240 OW            1 RES     
    5934 HW1         59.3010     0.7560    93.2340 HW1           1 RES     
    5935 HW2         60.8950     0.9700    93.5140 HW2           1 RES     
    5936 OW          35.8180    24.7150   107.0180 OW            1 RES     
    5937 HW1         35.0800    24.7380   106.3450 HW1           1 RES     
    5938 HW2         36.1540    23.7780   107.1140 HW2           1 RES     
    5939 OW           9.8990     7.5180    86.8140 OW            1 RES     
    5940 HW1         10.3250     6.6210    86.9270 HW1           1 RES     
    5941 HW2         10.6070     8.2080    86.6620 HW2           1 RES     
    5942 OW           4.1410     3.7320    95.6710 OW            1 RES     
    5943 HW1          3.9520     4.6970    95.8510 HW1           1 RES     
    5944 HW2          3.2960     3.2720    95.3970 HW2           1 RES     
    5945 OW           4.4510    36.0290    96.1520 OW            1 RES     
    5946 HW1          4.5310    36.2820    95.1880 HW1           1 RES     
    5947 HW2          3.8230    35.2560    96.2430 HW2           1 RES     
    5948 OW           8.6130    12.4660    93.2320 OW            1 RES     
    5949 HW1          8.6510    13.1120    93.9940 HW1           1 RES     
    5950 HW2          7.6750    12.1380    93.1190 HW2           1 RES     
    5951 OW          45.4990    23.8130    89.3680 OW            1 RES     
    5952 HW1         44.8240    23.1180    89.6150 HW1           1 RES     
    5953 HW2         46.4130    23.4070    89.3690 HW2           1 RES     
    5954 OW          18.2600    12.4090   102.7990 OW            1 RES     
    5955 HW1         17.7360    12.8540   102.0730 HW1           1 RES     
    5956 HW2         18.3390    13.0270   103.5810 HW2           1 RES     
    5957 OW          14.6830    21.2150   106.2940 OW            1 RES     
    5958 HW1         15.1800    21.4230   105.4520 HW1           1 RES     
    5959 HW2         14.4670    20.2390   106.3220 HW2           1 RES     
    5960 OW          41.2400     5.6450    92.0730 OW            1 RES     
    5961 HW1         41.3190     5.1970    92.9630 HW1           1 RES     
    5962 HW2         41.3830     6.6290    92.1810 HW2           1 RES     
    5963 OW           0.6320    41.3010    95.6440 OW            1 RES     
    5964 HW1          1.6060    41.5140    95.7220 HW1           1 RES     
    5965 HW2          0.4760    40.7430    94.8290 HW2           1 RES     
    5966 OW          30.6240     2.9930    99.6260 OW            1 RES     
    5967 HW1         30.3200     3.1500    98.6870 HW1           1 RES     
    5968 HW2         30.6010     2.0140    99.8260 HW2           1 RES     
    5969 OW          18.5380    21.2450    90.3700 OW            1 RES     
    5970 HW1         19.0000    22.1300    90.4180 HW1           1 RES     
    5971 HW2         17.5480    21.3840    90.3770 HW2           1 RES     
    5972 OW          39.5290    37.7040   108.8230 OW            1 RES     
    5973 HW1         39.1660    36.9280   108.3090 HW1           1 RES     
    5974 HW2         38.9850    38.5190   108.6250 HW2           1 RES     
    5975 OW          49.6530    17.6820   110.2900 OW            1 RES     
    5976 HW1         50.0590    18.3150   109.6320 HW1           1 RES     
    5977 HW2         50.3560    17.3670   110.9280 HW2           1 RES     
    5978 OW          31.0650    18.7330    96.2770 OW            1 RES     
    5979 HW1         30.2720    18.1250    96.2950 HW1           1 RES     
    5980 HW2         30.7570    19.6840    96.2680 HW2           1 RES     
    5981 OW          32.2860    43.6960    95.4250 OW            1 RES     
    5982 HW1         32.6200    43.6450    94.4850 HW1           1 RES     
    5983 HW2         31.8040    44.5620    95.5620 HW2           1 RES     
    5984 OW          28.2500     5.9530   109.1670 OW            1 RES     
    5985 HW1         28.6970     6.8150   108.9280 HW1           1 RES     
    5986 HW2         28.6520     5.2090   108.6320 HW2           1 RES     
    5987 OW          18.6220     3.3140   104.4900 OW            1 RES     
    5988 HW1         18.8710     2.7890   103.6770 HW1           1 RES     
    5989 HW2         18.7670     4.2880   104.3170 HW2           1 RES     
    5990 OW          47.1500    32.7670    86.3990 OW            1 RES     
    5991 HW1         47.0840    33.7570    86.2820 HW1           1 RES     
    5992 HW2         48.1020    32.5130    86.5680 HW2           1 RES     
    5993 OW           8.9570    38.9280    88.7020 OW            1 RES     
    5994 HW1          9.6390    38.3240    89.1120 HW1           1 RES     
    5995 HW2          8.7880    38.6490    87.7570 HW2           1 RES     
    5996 OW           0.9620    36.7790    90.4980 OW            1 RES     
    5997 HW1          0.5600    36.1100    89.8740 HW1           1 RES     
    5998 HW2          1.7830    37.1720    90.0820 HW2           1 RES     
    5999 OW          12.0510    42.1260    86.8450 OW            1 RES     
    6000 HW1         11.5200    41.2800    86.8020 HW1           1 RES     
    6001 HW2         12.5690    42.1520    87.7000 HW2           1 RES     
    6002 OW          13.6270    29.7670    95.3110 OW            1 RES     
    6003 HW1         12.6360    29.6930    95.4210 HW1           1 RES     
    6004 HW2         14.0780    29.0650    95.8620 HW2           1 RES     
    6005 OW          44.1490    38.4200    87.8890 OW            1 RES     
    6006 HW1         44.4950    39.0380    87.1830 HW1           1 RES     
    6007 HW2         43.1830    38.6130    88.0570 HW2           1 RES     
    6008 OW          57.6040    38.1670    92.4850 OW            1 RES     
    6009 HW1         56.9320    38.2180    93.2240 HW1           1 RES     
    6010 HW2         57.5890    39.0180    91.9610 HW2           1 RES     
    6011 OW          18.4920    43.3470    98.1940 OW            1 RES     
    6012 HW1         19.1390    43.6410    97.4920 HW1           1 RES     
    6013 HW2         17.6360    43.8540    98.0930 HW2           1 RES     
    6014 OW          49.6860     4.5890    98.5290 OW            1 RES     
    6015 HW1         50.0500     4.3730    99.4340 HW1           1 RES     
    6016 HW2         50.2730     5.2680    98.0870 HW2           1 RES     
    6017 OW          16.1870    31.3010   105.8300 OW            1 RES     
    6018 HW1         16.8290    32.0570   105.9540 HW1           1 RES     
    6019 HW2         15.7510    31.3760   104.9330 HW2           1 RES     
    6020 OW          45.4980    16.4250   103.2580 OW            1 RES     
    6021 HW1         45.8120    16.8630   102.4170 HW1           1 RES     
    6022 HW2         44.9020    15.6550   103.0310 HW2           1 RES     
    6023 OW          44.1970    47.4180   101.5280 OW            1 RES     
    6024 HW1         43.3110    46.9870   101.3560 HW1           1 RES     
    6025 HW2         44.8770    46.7130   101.7290 HW2           1 RES     
    6026 OW          39.4700    26.9300   108.1550 OW            1 RES     
    6027 HW1         39.4530    25.9310   108.1260 HW1           1 RES     
    6028 HW2         40.4100    27.2520   108.0420 HW2           1 RES     
    6029 OW          37.4220    10.9780    92.2370 OW            1 RES     
    6030 HW1         37.6230    10.2370    91.5960 HW1           1 RES     
    6031 HW2         38.2760    11.3270    92.6230 HW2           1 RES     
    6032 OW          19.3300    18.5180   107.5910 OW            1 RES     
    6033 HW1         18.5550    17.8870   107.6250 HW1           1 RES     
    6034 HW2         18.9930    19.4600   107.5800 HW2           1 RES     
    6035 OW          54.4940    42.6500    93.6550 OW            1 RES     
    6036 HW1         54.8400    42.6270    94.5920 HW1           1 RES     
    6037 HW2         53.7340    42.0060    93.5630 HW2           1 RES     
    6038 OW          21.2640    42.4330   108.6200 OW            1 RES     
    6039 HW1         20.4260    42.0650   109.0210 HW1           1 RES     
    6040 HW2         22.0360    41.8440   108.8610 HW2           1 RES     
    6041 OW          17.0340    41.4940   107.8430 OW            1 RES     
    6042 HW1         17.1440    42.0070   108.6930 HW1           1 RES     
    6043 HW2         16.1780    41.7600   107.4000 HW2           1 RES     
    6044 OW          46.0020    28.5790    88.5030 OW            1 RES     
    6045 HW1         45.3200    29.3090    88.4640 HW1           1 RES     
    6046 HW2         46.9190    28.9770    88.4700 HW2           1 RES     
    6047 OW          12.0480    46.6960    98.1600 OW            1 RES     
    6048 HW1         11.9220    46.2190    97.2910 HW1           1 RES     
    6049 HW2         11.5170    47.5440    98.1560 HW2           1 RES     
    6050 OW           8.8320    45.9510    98.0760 OW            1 RES     
    6051 HW1          9.3780    45.8500    98.9060 HW1           1 RES     
    6052 HW2          8.6520    45.0500    97.6820 HW2           1 RES     
    6053 OW          39.8990     3.1870   104.6100 OW            1 RES     
    6054 HW1         39.4410     2.4700   104.0850 HW1           1 RES     
    6055 HW2         39.9850     4.0100   104.0490 HW2           1 RES     
    6056 OW          24.8350    46.8580   106.4100 OW            1 RES     
    6057 HW1         23.9180    46.4640   106.3610 HW1           1 RES     
    6058 HW2         25.5110    46.1240   106.4880 HW2           1 RES     
    6059 OW          27.6770    26.6620   109.7910 OW            1 RES     
    6060 HW1         28.1060    26.1610   109.0400 HW1           1 RES     
    6061 HW2         27.0320    26.0640   110.2670 HW2           1 RES     
    6062 OW          39.2710    21.9770    97.7600 OW            1 RES     
    6063 HW1         39.0030    22.2690    96.8430 HW1           1 RES     
    6064 HW2         39.9110    21.2120    97.6930 HW2           1 RES     
    6065 OW          32.8200     2.2550   101.6170 OW            1 RES     
    6066 HW1         33.4900     2.9810   101.7620 HW1           1 RES     
    6067 HW2         32.0520     2.3780   102.2460 HW2           1 RES     
    6068 OW          20.3760     0.7580   105.7950 OW            1 RES     
    6069 HW1         20.4580     0.0150   105.1310 HW1           1 RES     
    6070 HW2         20.6020     0.4170   106.7070 HW2           1 RES     
    6071 OW           7.9450    41.5690    91.8860 OW            1 RES     
    6072 HW1          7.9850    42.2720    92.5950 HW1           1 RES     
    6073 HW2          7.4730    41.9330    91.0820 HW2           1 RES     
    6074 OW          52.1740    13.3790    99.7580 OW            1 RES     
    6075 HW1         51.4440    13.9080    99.3270 HW1           1 RES     
    6076 HW2         51.8820    12.4280    99.8590 HW2           1 RES     
    6077 OW          23.4680    45.2880   102.2790 OW            1 RES     
    6078 HW1         23.3730    46.1550   102.7660 HW1           1 RES     
    6079 HW2         22.7260    44.6720   102.5440 HW2           1 RES     
    6080 OW          56.2550    29.4050    86.5360 OW            1 RES     
    6081 HW1         55.5860    30.0710    86.2090 HW1           1 RES     
    6082 HW2         55.7900    28.5500    86.7690 HW2           1 RES     
    6083 OW           6.0200     8.1640    99.1950 OW            1 RES     
    6084 HW1          6.3000     7.2460    98.9150 HW1           1 RES     
    6085 HW2          5.0220     8.2070    99.2480 HW2           1 RES     
    6086 OW          35.3190    32.0600    95.5450 OW            1 RES     
    6087 HW1         35.3850    31.5260    96.3880 HW1           1 RES     
    6088 HW2         35.1760    31.4440    94.7700 HW2           1 RES     
    6089 OW          60.1320     0.5130   102.0960 OW            1 RES     
    6090 HW1         59.5220     0.7560   102.8500 HW1           1 RES     
    6091 HW2         60.6540     1.3190   101.8160 HW2           1 RES     
    6092 OW           5.3370    17.7090   102.3740 OW            1 RES     
    6093 HW1          5.8830    18.4950   102.6630 HW1           1 RES     
    6094 HW2          5.2180    17.0840   103.1460 HW2           1 RES     
    6095 OW          38.7280    39.6200    99.4240 OW            1 RES     
    6096 HW1         38.0760    38.9220    99.7170 HW1           1 RES     
    6097 HW2         38.4090    40.5200    99.7220 HW2           1 RES     
    6098 OW          46.5810    11.3190   100.3310 OW            1 RES     
    6099 HW1         46.9220    12.2040   100.0170 HW1           1 RES     
    6100 HW2         45.5810    11.3380   100.3570 HW2           1 RES     
    6101 OW          54.6310    46.3000   109.6710 OW            1 RES     
    6102 HW1         53.6810    46.4650   109.4090 HW1           1 RES     
    6103 HW2         55.0180    45.5830   109.0900 HW2           1 RES     
    6104 OW          22.0340    35.0210    93.4460 OW            1 RES     
    6105 HW1         21.1630    34.5320    93.4480 HW1           1 RES     
    6106 HW2         22.7870    34.3630    93.4620 HW2           1 RES     
    6107 OW          60.4110    27.0880   109.8220 OW            1 RES     
    6108 HW1         61.2490    27.6210   109.7150 HW1           1 RES     
    6109 HW2         59.6630    27.6930   110.0960 HW2           1 RES     
    6110 OW          26.0600    17.7400    89.6910 OW            1 RES     
    6111 HW1         26.7450    17.3540    90.3070 HW1           1 RES     
    6112 HW2         26.1980    18.7280    89.6160 HW2           1 RES     
    6113 OW          38.5070    28.2250    87.1700 OW            1 RES     
    6114 HW1         37.8610    28.9700    87.0140 HW1           1 RES     
    6115 HW2         39.4170    28.5010    86.8590 HW2           1 RES     
    6116 OW          47.9780    41.9440    86.8080 OW            1 RES     
    6117 HW1         47.5260    42.7300    86.3870 HW1           1 RES     
    6118 HW2         48.0000    41.1840    86.1580 HW2           1 RES     
    6119 OW          14.7870    29.0680   109.1350 OW            1 RES     
    6120 HW1         14.1700    29.6210   109.6940 HW1           1 RES     
    6121 HW2         15.3670    28.5110   109.7290 HW2           1 RES     
    6122 OW           6.4570     2.7480   108.7100 OW            1 RES     
    6123 HW1          7.2130     3.2120   108.2500 HW1           1 RES     
    6124 HW2          6.0550     3.3600   109.3920 HW2           1 RES     
    6125 OW          54.3150    30.0600    97.8300 OW            1 RES     
    6126 HW1         53.9880    30.7940    98.4250 HW1           1 RES     
    6127 HW2         53.6670    29.2990    97.8520 HW2           1 RES     
    6128 OW          51.7140    33.9910    98.7050 OW            1 RES     
    6129 HW1         52.5130    33.6600    98.2050 HW1           1 RES     
    6130 HW2         50.9360    33.3870    98.5290 HW2           1 RES     
    6131 OW          38.5560    14.0300    90.9420 OW            1 RES     
    6132 HW1         38.0400    14.7240    90.4410 HW1           1 RES     
    6133 HW2         37.9210    13.4240    91.4220 HW2           1 RES     
    6134 OW          10.8950     6.2210    89.4950 OW            1 RES     
    6135 HW1         11.0760     5.2380    89.5270 HW1           1 RES     
    6136 HW2          9.9150     6.3830    89.6110 HW2           1 RES     
    6137 OW          14.0750    40.6410   101.2580 OW            1 RES     
    6138 HW1         14.8270    41.2840   101.3980 HW1           1 RES     
    6139 HW2         13.3010    41.1190   100.8410 HW2           1 RES     
    6140 OW          44.9160    21.9370   108.4940 OW            1 RES     
    6141 HW1         45.7290    21.8810   109.0720 HW1           1 RES     
    6142 HW2         44.4450    22.8030   108.6620 HW2           1 RES     
    6143 OW          44.9160    43.3340   106.9180 OW            1 RES     
    6144 HW1         45.7970    43.8040   106.8830 HW1           1 RES     
    6145 HW2         45.0650    42.3450   106.9310 HW2           1 RES     
    6146 OW           1.8910    36.0190    87.9870 OW            1 RES     
    6147 HW1          2.4840    35.4300    88.5360 HW1           1 RES     
    6148 HW2          1.6510    35.5500    87.1360 HW2           1 RES     
    6149 OW          42.2720    17.1600   109.0520 OW            1 RES     
    6150 HW1         42.7410    18.0290   108.8920 HW1           1 RES     
    6151 HW2         41.8460    16.8500   108.2020 HW2           1 RES     
    6152 OW          59.1290    28.5140   104.7300 OW            1 RES     
    6153 HW1         58.8660    27.5970   105.0280 HW1           1 RES     
    6154 HW2         59.2730    28.5150   103.7400 HW2           1 RES     
    6155 OW          44.0080    15.3810   105.3020 OW            1 RES     
    6156 HW1         43.4840    15.8790   105.9920 HW1           1 RES     
    6157 HW2         44.8310    14.9960   105.7210 HW2           1 RES     
    6158 OW          13.6310    23.6080   107.6980 OW            1 RES     
    6159 HW1         14.5270    23.1680   107.6460 HW1           1 RES     
    6160 HW2         13.6660    24.4910   107.2300 HW2           1 RES     
    6161 OW          15.4020    36.6910   110.0870 OW            1 RES     
    6162 HW1         15.3850    37.3360   109.3250 HW1           1 RES     
    6163 HW2         15.6450    37.1740   110.9280 HW2           1 RES     
    6164 OW          20.7530    41.8670    95.8650 OW            1 RES     
    6165 HW1         21.0340    42.1480    96.7820 HW1           1 RES     
    6166 HW2         21.5630    41.6530    95.3190 HW2           1 RES     
    6167 OW          18.2060    29.6750    97.8040 OW            1 RES     
    6168 HW1         18.9230    28.9800    97.7800 HW1           1 RES     
    6169 HW2         18.6210    30.5800    97.8960 HW2           1 RES     
    6170 OW          39.4990     6.9640    94.3800 OW            1 RES     
    6171 HW1         39.5080     6.2450    95.0740 HW1           1 RES     
    6172 HW2         39.7590     7.8340    94.7980 HW2           1 RES     
    6173 OW          43.2940     0.7820    90.0030 OW            1 RES     
    6174 HW1         42.8870     1.6530    90.2740 HW1           1 RES     
    6175 HW2         42.8860     0.4760    89.1430 HW2           1 RES     
    6176 OW          45.3990    33.6180   105.2770 OW            1 RES     
    6177 HW1         46.1090    34.3210   105.2560 HW1           1 RES     
    6178 HW2         45.8230    32.7170   105.3700 HW2           1 RES     
    6179 OW          36.4370     9.1490    93.3060 OW            1 RES     
    6180 HW1         35.4780     9.1930    93.0280 HW1           1 RES     
    6181 HW2         36.8490     8.3080    92.9540 HW2           1 RES     
    6182 OW           5.7210    20.5840   103.3590 OW            1 RES     
    6183 HW1          4.7340    20.4880   103.2380 HW1           1 RES     
    6184 HW2          5.9480    21.5480   103.4970 HW2           1 RES     
    6185 OW          28.5040    46.4450    92.9270 OW            1 RES     
    6186 HW1         28.6490    47.4340    92.9160 HW1           1 RES     
    6187 HW2         27.6210    46.2310    92.5100 HW2           1 RES     
    6188 OW           6.6810    39.5620   102.0390 OW            1 RES     
    6189 HW1          6.4530    38.7130   102.5150 HW1           1 RES     
    6190 HW2          5.8970    39.8610   101.4950 HW2           1 RES     
    6191 OW          48.2900    38.5760    94.7630 OW            1 RES     
    6192 HW1         48.5280    38.9510    93.8680 HW1           1 RES     
    6193 HW2         47.3710    38.8770    95.0180 HW2           1 RES     
    6194 OW          23.6050    16.0350   104.3800 OW            1 RES     
    6195 HW1         22.7590    15.6070   104.6970 HW1           1 RES     
    6196 HW2         23.6150    16.9970   104.6530 HW2           1 RES     
    6197 OW          21.5990    17.8780   105.3310 OW            1 RES     
    6198 HW1         21.5530    18.7890   104.9220 HW1           1 RES     
    6199 HW2         20.8060    17.7380   105.9240 HW2           1 RES     
    6200 OW          10.1330    41.4270    97.3580 OW            1 RES     
    6201 HW1         10.3540    40.4600    97.2320 HW1           1 RES     
    6202 HW2          9.1500    41.5260    97.5190 HW2           1 RES     
    6203 OW          39.0970    15.0130   100.2440 OW            1 RES     
    6204 HW1         38.8280    14.9060   101.2010 HW1           1 RES     
    6205 HW2         39.6230    15.8570   100.1370 HW2           1 RES     
    6206 OW           0.0010    30.9470    96.3060 OW            1 RES     
    6207 HW1          0.0880    31.3050    97.2360 HW1           1 RES     
    6208 HW2          0.0150    29.9470    96.3310 HW2           1 RES     
    6209 OW          19.3330     5.4000    87.6760 OW            1 RES     
    6210 HW1         18.6970     4.9360    87.0600 HW1           1 RES     
    6211 HW2         19.9000     6.0370    87.1520 HW2           1 RES     
    6212 OW          18.5700    46.6970   110.4880 OW            1 RES     
    6213 HW1         17.7390    46.2060   110.7480 HW1           1 RES     
    6214 HW2         19.2740    46.5550   111.1840 HW2           1 RES     
    6215 OW           9.0140    39.3530   107.6500 OW            1 RES     
    6216 HW1          9.5170    40.1450   107.9920 HW1           1 RES     
    6217 HW2          8.0340    39.4940   107.7900 HW2           1 RES     
    6218 OW          26.0380    23.8810    88.2760 OW            1 RES     
    6219 HW1         26.1180    24.5660    88.9990 HW1           1 RES     
    6220 HW2         25.1660    23.4000    88.3670 HW2           1 RES     
    6221 OW           1.9500    35.3970   110.8630 OW            1 RES     
    6222 HW1          1.9700    34.4770   111.2530 HW1           1 RES     
    6223 HW2          1.2020    35.4640   110.2020 HW2           1 RES     
    6224 OW          62.0180     8.1350    98.0910 OW            1 RES     
    6225 HW1         62.6260     8.0350    97.3030 HW1           1 RES     
    6226 HW2         61.1080     8.4060    97.7780 HW2           1 RES     
    6227 OW           4.8410    32.7620    99.0040 OW            1 RES     
    6228 HW1          5.4490    32.3610    99.6890 HW1           1 RES     
    6229 HW2          4.8960    33.7600    99.0520 HW2           1 RES     
    6230 OW          47.0550    32.7010    93.0780 OW            1 RES     
    6231 HW1         46.6340    33.6070    93.1250 HW1           1 RES     
    6232 HW2         48.0490    32.7920    93.1380 HW2           1 RES     
    6233 OW          38.7140     9.7730    86.9350 OW            1 RES     
    6234 HW1         38.6910    10.7700    86.8800 HW1           1 RES     
    6235 HW2         37.7790     9.4170    86.9410 HW2           1 RES     
    6236 OW          23.4090    23.5840   104.8300 OW            1 RES     
    6237 HW1         23.3060    22.8360   104.1750 HW1           1 RES     
    6238 HW2         23.1170    23.2780   105.7360 HW2           1 RES     
    6239 OW          57.9100     8.3850    87.7600 OW            1 RES     
    6240 HW1         58.2750     7.8780    88.5410 HW1           1 RES     
    6241 HW2         58.5300     9.1340    87.5290 HW2           1 RES     
    6242 OW          52.3320     0.8380   102.5280 OW            1 RES     
    6243 HW1         51.5500     0.4390   103.0060 HW1           1 RES     
    6244 HW2         52.1790     1.8170   102.3940 HW2           1 RES     
    6245 OW          18.3530    16.0290    97.6230 OW            1 RES     
    6246 HW1         18.4770    15.1830    97.1070 HW1           1 RES     
    6247 HW2         17.7590    16.6490    97.1100 HW2           1 RES     
    6248 OW          20.5550    13.5360    98.6450 OW            1 RES     
    6249 HW1         20.0710    13.0030    97.9520 HW1           1 RES     
    6250 HW2         20.3910    14.5110    98.4920 HW2           1 RES     
    6251 OW          32.7280    17.8990    97.6340 OW            1 RES     
    6252 HW1         32.1530    17.1050    97.4410 HW1           1 RES     
    6253 HW2         32.4880    18.2760    98.5290 HW2           1 RES     
    6254 OW          37.1730    35.7550    88.9520 OW            1 RES     
    6255 HW1         37.9310    36.3350    88.6550 HW1           1 RES     
    6256 HW2         37.3210    35.4740    89.9010 HW2           1 RES     
    6257 OW          36.8090    16.8440    96.6640 OW            1 RES     
    6258 HW1         37.5500    16.3030    96.2690 HW1           1 RES     
    6259 HW2         37.1340    17.7710    96.8490 HW2           1 RES     
    6260 OW           3.1630    24.1490    90.0570 OW            1 RES     
    6261 HW1          3.6840    23.3070    89.9160 HW1           1 RES     
    6262 HW2          2.3700    24.1570    89.4480 HW2           1 RES     
    6263 OW          36.1680    23.1480    93.4580 OW            1 RES     
    6264 HW1         35.9280    23.6970    94.2570 HW1           1 RES     
    6265 HW2         36.9560    23.5550    92.9970 HW2           1 RES     
    6266 OW          56.1880    36.0670   109.7110 OW            1 RES     
    6267 HW1         55.6310    35.3450   109.3030 HW1           1 RES     
    6268 HW2         56.6660    36.5680   108.9900 HW2           1 RES     
    6269 OW          26.6070    19.4340   102.1160 OW            1 RES     
    6270 HW1         27.1150    19.9140   101.4020 HW1           1 RES     
    6271 HW2         26.6670    19.9480   102.9720 HW2           1 RES     
    6272 OW           9.4280    44.8850   107.7460 OW            1 RES     
    6273 HW1          9.4030    43.8920   107.6300 HW1           1 RES     
    6274 HW2          8.5540    45.2000   108.1150 HW2           1 RES     
    6275 OW          24.3840    25.9200    95.2400 OW            1 RES     
    6276 HW1         25.2060    26.4780    95.1300 HW1           1 RES     
    6277 HW2         24.5820    24.9780    94.9670 HW2           1 RES     
    6278 OW          55.3260    44.5730   102.5710 OW            1 RES     
    6279 HW1         55.1670    43.9720   103.3540 HW1           1 RES     
    6280 HW2         55.4570    44.0210   101.7480 HW2           1 RES     
    6281 OW          49.4890    32.5150   104.4640 OW            1 RES     
    6282 HW1         50.3020    32.5570   103.8850 HW1           1 RES     
    6283 HW2         48.7000    32.8660   103.9580 HW2           1 RES     
    6284 OW          11.9690    12.5740    89.2890 OW            1 RES     
    6285 HW1         12.9280    12.8520    89.3270 HW1           1 RES     
    6286 HW2         11.3840    13.3830    89.3380 HW2           1 RES     
    6287 OW          52.1460    15.7640    96.0570 OW            1 RES     
    6288 HW1         52.1650    15.9050    97.0470 HW1           1 RES     
    6289 HW2         51.2050    15.8350    95.7280 HW2           1 RES     
    6290 OW          43.6190     3.9790    95.7350 OW            1 RES     
    6291 HW1         42.8070     3.9600    95.1520 HW1           1 RES     
    6292 HW2         44.4360     4.0750    95.1670 HW2           1 RES     
    6293 OW          53.1530     5.9290    93.5890 OW            1 RES     
    6294 HW1         53.2340     5.2180    92.8920 HW1           1 RES     
    6295 HW2         52.5170     6.6340    93.2760 HW2           1 RES     
    6296 OW          62.4560     0.4630    91.4730 OW            1 RES     
    6297 HW1         61.5900     0.0040    91.6630 HW1           1 RES     
    6298 HW2         62.6020     1.1920    92.1420 HW2           1 RES     
    6299 OW          56.1910    21.0260    89.7010 OW            1 RES     
    6300 HW1         57.0850    21.0800    90.1450 HW1           1 RES     
    6301 HW2         55.9190    20.0670    89.6170 HW2           1 RES     
    6302 OW           9.3360    15.5390    92.8030 OW            1 RES     
    6303 HW1         10.3260    15.6440    92.7130 HW1           1 RES     
    6304 HW2          8.9540    16.3470    93.2510 HW2           1 RES     
    6305 OW          22.9800    40.9300    92.7710 OW            1 RES     
    6306 HW1         22.4180    41.5910    93.2660 HW1           1 RES     
    6307 HW2         23.9470    41.1340    92.9230 HW2           1 RES     
    6308 OW           2.6400    30.0650    95.2440 OW            1 RES     
    6309 HW1          2.3250    30.8790    95.7310 HW1           1 RES     
    6310 HW2          2.1850    29.2560    95.6170 HW2           1 RES     
    6311 OW          20.3620    40.4270    90.6800 OW            1 RES     
    6312 HW1         21.1790    40.9190    90.3800 HW1           1 RES     
    6313 HW2         20.5160    39.4420    90.5940 HW2           1 RES     
    6314 OW          24.5320    30.7200   105.8680 OW            1 RES     
    6315 HW1         24.3490    29.9890   105.2100 HW1           1 RES     
    6316 HW2         24.7270    31.5690   105.3770 HW2           1 RES     
    6317 OW          10.0280    23.5200   110.6740 OW            1 RES     
    6318 HW1          9.9000    22.7120   111.2480 HW1           1 RES     
    6319 HW2          9.6970    24.3300   111.1600 HW2           1 RES     
    6320 OW          18.0610    15.9670   102.3020 OW            1 RES     
    6321 HW1         17.2000    15.4820   102.1510 HW1           1 RES     
    6322 HW2         18.5690    15.5240   103.0410 HW2           1 RES     
    6323 OW          43.5560    26.5450    96.1900 OW            1 RES     
    6324 HW1         44.0800    26.9750    95.4540 HW1           1 RES     
    6325 HW2         42.6820    27.0200    96.2980 HW2           1 RES     
    6326 OW           0.7840    22.0360    97.7100 OW            1 RES     
    6327 HW1          1.3250    21.5700    97.0110 HW1           1 RES     
    6328 HW2          0.2360    22.7560    97.2830 HW2           1 RES     
    6329 OW          28.5720     2.2250   109.2500 OW            1 RES     
    6330 HW1         28.9710     1.3530   108.9690 HW1           1 RES     
    6331 HW2         28.0570     2.0980   110.0980 HW2           1 RES     
    6332 OW          55.1130    17.5120   108.4200 OW            1 RES     
    6333 HW1         54.1920    17.7360   108.1040 HW1           1 RES     
    6334 HW2         55.5940    18.3520   108.6710 HW2           1 RES     
    6335 OW          12.1960     1.0550    88.1280 OW            1 RES     
    6336 HW1         12.7400     0.3190    87.7250 HW1           1 RES     
    6337 HW2         11.2970     0.7020    88.3860 HW2           1 RES     
    6338 OW          13.6300    10.3030   107.7470 OW            1 RES     
    6339 HW1         13.7140     9.3310   107.5330 HW1           1 RES     
    6340 HW2         14.1920    10.5200   108.5450 HW2           1 RES     
    6341 OW          56.2500    37.6970    96.2570 OW            1 RES     
    6342 HW1         56.1750    37.1630    97.0980 HW1           1 RES     
    6343 HW2         55.3880    38.1760    96.0880 HW2           1 RES     
    6344 OW          17.2100    20.7440   100.7010 OW            1 RES     
    6345 HW1         17.9380    20.0590   100.6870 HW1           1 RES     
    6346 HW2         16.9410    20.9240   101.6480 HW2           1 RES     
    6347 OW          55.6820    22.0910    94.0880 OW            1 RES     
    6348 HW1         55.2200    22.1470    94.9720 HW1           1 RES     
    6349 HW2         56.1500    21.2110    94.0100 HW2           1 RES     
    6350 OW           4.8280    15.1480    90.8260 OW            1 RES     
    6351 HW1          4.9560    15.7940    90.0750 HW1           1 RES     
    6352 HW2          3.8510    14.9930    90.9720 HW2           1 RES     
    6353 OW          23.6940    39.9550    87.2320 OW            1 RES     
    6354 HW1         23.6810    39.1140    86.6920 HW1           1 RES     
    6355 HW2         24.5660    40.0250    87.7180 HW2           1 RES     
    6356 OW          13.8360     5.8130    94.8930 OW            1 RES     
    6357 HW1         12.9630     5.7840    94.4070 HW1           1 RES     
    6358 HW2         14.4430     6.4720    94.4490 HW2           1 RES     
    6359 OW           2.4690     1.0340   107.7410 OW            1 RES     
    6360 HW1          2.3570     0.7830   106.7800 HW1           1 RES     
    6361 HW2          1.9600     1.8750   107.9280 HW2           1 RES     
    6362 OW           3.7540    39.4740    94.1260 OW            1 RES     
    6363 HW1          3.9840    38.8060    93.4190 HW1           1 RES     
    6364 HW2          3.2210    40.2180    93.7220 HW2           1 RES     
    6365 OW          41.6910     2.5580    91.9690 OW            1 RES     
    6366 HW1         41.7120     3.0290    92.8500 HW1           1 RES     
    6367 HW2         41.3010     1.6440    92.0880 HW2           1 RES     
    6368 OW          36.9620     8.7120    97.7740 OW            1 RES     
    6369 HW1         36.6260     7.7780    97.6570 HW1           1 RES     
    6370 HW2         37.8300     8.6950    98.2700 HW2           1 RES     
    6371 OW          36.6900    39.6710    97.6530 OW            1 RES     
    6372 HW1         36.7730    40.6070    97.3120 HW1           1 RES     
    6373 HW2         35.9800    39.1900    97.1390 HW2           1 RES     
    6374 OW          18.5070     5.8660    90.7450 OW            1 RES     
    6375 HW1         18.7500     6.8320    90.8300 HW1           1 RES     
    6376 HW2         18.8040     5.5230    89.8540 HW2           1 RES     
    6377 OW          57.9600     4.9770    87.0790 OW            1 RES     
    6378 HW1         58.6820     5.6340    86.8620 HW1           1 RES     
    6379 HW2         57.1770     5.1300    86.4760 HW2           1 RES     
    6380 OW          60.3480    24.2780   101.2030 OW            1 RES     
    6381 HW1         61.2370    23.8240   101.1480 HW1           1 RES     
    6382 HW2         60.4820    25.2670   101.2670 HW2           1 RES     
    6383 OW          10.9840    43.1560    99.1600 OW            1 RES     
    6384 HW1         10.0860    42.7160    99.1440 HW1           1 RES     
    6385 HW2         10.8740    44.1430    99.0400 HW2           1 RES     
    6386 OW          10.6430    42.5330    92.0130 OW            1 RES     
    6387 HW1         10.2960    41.8910    92.6960 HW1           1 RES     
    6388 HW2         10.1250    42.4280    91.1630 HW2           1 RES     
    6389 OW          14.3350     2.9810   105.1160 OW            1 RES     
    6390 HW1         14.1290     3.4600   104.2640 HW1           1 RES     
    6391 HW2         13.4850     2.6590   105.5330 HW2           1 RES     
    6392 OW          42.0390    43.5320    96.7760 OW            1 RES     
    6393 HW1         42.4040    42.6020    96.7450 HW1           1 RES     
    6394 HW2         42.7940    44.1850    96.8390 HW2           1 RES     
    6395 OW           0.1970    38.3430   110.2650 OW            1 RES     
    6396 HW1          1.1740    38.5500   110.2980 HW1           1 RES     
    6397 HW2          0.0670    37.3510   110.2550 HW2           1 RES     
    6398 OW          39.8200    36.7080   102.0860 OW            1 RES     
    6399 HW1         40.4780    35.9620   102.1820 HW1           1 RES     
    6400 HW2         38.8910    36.3410   102.1300 HW2           1 RES     
    6401 OW          44.4980    26.5130   108.4030 OW            1 RES     
    6402 HW1         44.7480    26.2490   109.3330 HW1           1 RES     
    6403 HW2         45.0650    26.0110   107.7490 HW2           1 RES     
    6404 OW          25.4900     5.3630   110.9920 OW            1 RES     
    6405 HW1         24.5320     5.5990   110.8360 HW1           1 RES     
    6406 HW2         25.6170     4.3790   110.8650 HW2           1 RES     
    6407 OW          16.1490     3.0470   102.3140 OW            1 RES     
    6408 HW1         15.5420     3.7070   101.8730 HW1           1 RES     
    6409 HW2         16.9020     3.5320   102.7600 HW2           1 RES     
    6410 OW          42.8620    46.2910   107.4170 OW            1 RES     
    6411 HW1         42.4700    45.3990   107.6390 HW1           1 RES     
    6412 HW2         43.8600    46.2270   107.4140 HW2           1 RES     
    6413 OW          32.5830    28.6170    97.7360 OW            1 RES     
    6414 HW1         33.2890    28.9160    97.0950 HW1           1 RES     
    6415 HW2         32.2770    27.6970    97.4920 HW2           1 RES     
    6416 OW          59.5920     3.5100   100.3110 OW            1 RES     
    6417 HW1         58.6850     3.9040   100.4610 HW1           1 RES     
    6418 HW2         59.5240     2.5120   100.3000 HW2           1 RES     
    6419 OW          19.1800    25.2070    91.6290 OW            1 RES     
    6420 HW1         19.5710    24.2880    91.6720 HW1           1 RES     
    6421 HW2         19.5560    25.7640    92.3700 HW2           1 RES     
    6422 OW          33.5600    20.5570   108.5870 OW            1 RES     
    6423 HW1         33.9300    21.1200   107.8490 HW1           1 RES     
    6424 HW2         34.3100    20.1120   109.0770 HW2           1 RES     
    6425 OW          55.0630     0.8860   107.8680 OW            1 RES     
    6426 HW1         55.6570     1.5350   107.3940 HW1           1 RES     
    6427 HW2         54.2500     1.3610   108.2030 HW2           1 RES     
    6428 OW          19.0370    10.8570   100.3550 OW            1 RES     
    6429 HW1         19.2130    11.7770   100.0060 HW1           1 RES     
    6430 HW2         18.0500    10.7170   100.4440 HW2           1 RES     
    6431 OW          32.1320    30.1990    94.4810 OW            1 RES     
    6432 HW1         33.1300    30.1440    94.4980 HW1           1 RES     
    6433 HW2         31.8490    30.9220    93.8500 HW2           1 RES     
    6434 OW          24.7670    20.4220   106.1980 OW            1 RES     
    6435 HW1         23.9460    20.3480   105.6320 HW1           1 RES     
    6436 HW2         25.2690    21.2510   105.9510 HW2           1 RES     
    6437 OW          21.6330    33.2560    90.8000 OW            1 RES     
    6438 HW1         22.2710    34.0250    90.8120 HW1           1 RES     
    6439 HW2         21.0490    33.3200    89.9900 HW2           1 RES     
    6440 OW          25.9460    46.3160    97.9210 OW            1 RES     
    6441 HW1         24.9910    46.5720    97.7830 HW1           1 RES     
    6442 HW2         26.1520    45.4940    97.3880 HW2           1 RES     
    6443 OW          21.9870    23.4450    94.8580 OW            1 RES     
    6444 HW1         22.8960    23.5600    95.2590 HW1           1 RES     
    6445 HW2         21.9590    23.8870    93.9620 HW2           1 RES     
    6446 OW           3.4340    47.6360   109.8410 OW            1 RES     
    6447 HW1          4.0150    48.1180   109.1860 HW1           1 RES     
    6448 HW2          3.8990    46.8070   110.1520 HW2           1 RES     
    6449 OW          30.1680    30.7590   102.3970 OW            1 RES     
    6450 HW1         29.5440    31.4200   101.9810 HW1           1 RES     
    6451 HW2         31.1110    31.0730   102.2830 HW2           1 RES     
    6452 OW           2.9670    29.9950    87.6450 OW            1 RES     
    6453 HW1          2.9860    30.9830    87.7930 HW1           1 RES     
    6454 HW2          3.8320    29.5950    87.9480 HW2           1 RES     
    6455 OW           5.6400    46.5230    92.1840 OW            1 RES     
    6456 HW1          5.9580    45.6450    92.5390 HW1           1 RES     
    6457 HW2          4.8450    46.3770    91.5940 HW2           1 RES     
    6458 OW          61.6770    19.0660   100.3690 OW            1 RES     
    6459 HW1         62.3550    18.7960    99.6870 HW1           1 RES     
    6460 HW2         61.8850    18.6200   101.2400 HW2           1 RES     
    6461 OW          37.9820    11.3290   106.6510 OW            1 RES     
    6462 HW1         38.9500    11.0950   106.7390 HW1           1 RES     
    6463 HW2         37.4230    10.5570   106.9560 HW2           1 RES     
    6464 OW          41.6400    43.2300    91.7340 OW            1 RES     
    6465 HW1         42.6160    43.3330    91.9190 HW1           1 RES     
    6466 HW2         41.2150    44.1340    91.6690 HW2           1 RES     
    6467 OW          33.0070    43.0720    88.1040 OW            1 RES     
    6468 HW1         32.8020    43.4540    87.2040 HW1           1 RES     
    6469 HW2         33.9820    43.1840    88.3000 HW2           1 RES     
    6470 OW          49.0340    15.2850   103.5420 OW            1 RES     
    6471 HW1         49.1060    14.9150   102.6160 HW1           1 RES     
    6472 HW2         48.5370    14.6390   104.1220 HW2           1 RES     
    6473 OW          59.5910    34.7140   110.5110 OW            1 RES     
    6474 HW1         59.3790    34.0660   111.2420 HW1           1 RES     
    6475 HW2         58.7860    35.2750   110.3190 HW2           1 RES     
    6476 OW          23.1960    10.3290   102.5260 OW            1 RES     
    6477 HW1         22.2550    10.5490   102.2690 HW1           1 RES     
    6478 HW2         23.7960    10.4550   101.7360 HW2           1 RES     
    6479 OW          37.1800     4.9150   107.5870 OW            1 RES     
    6480 HW1         36.4220     4.2660   107.5350 HW1           1 RES     
    6481 HW2         38.0450     4.4150   107.6240 HW2           1 RES     
    6482 OW          31.8320    28.6970   106.2940 OW            1 RES     
    6483 HW1         31.8680    28.1040   107.0980 HW1           1 RES     
    6484 HW2         32.7090    28.6620   105.8140 HW2           1 RES     
    6485 OW          46.0920     7.6820   110.2640 OW            1 RES     
    6486 HW1         46.4560     6.9250   110.8050 HW1           1 RES     
    6487 HW2         45.1110     7.7740   110.4360 HW2           1 RES     
    6488 OW          23.7960    13.1810    96.8040 OW            1 RES     
    6489 HW1         23.3260    13.6850    97.5280 HW1           1 RES     
    6490 HW2         23.1240    12.6930    96.2470 HW2           1 RES     
    6491 OW          36.4860    44.2050    98.2960 OW            1 RES     
    6492 HW1         37.3290    43.6780    98.3980 HW1           1 RES     
    6493 HW2         36.7090    45.1450    98.0370 HW2           1 RES     
    6494 OW          56.7520    38.7410    98.7680 OW            1 RES     
    6495 HW1         57.5280    38.1500    98.5490 HW1           1 RES     
    6496 HW2         56.0030    38.1880    99.1340 HW2           1 RES     
    6497 OW          39.7390    21.7730   100.1830 OW            1 RES     
    6498 HW1         39.8380    20.7810   100.2530 HW1           1 RES     
    6499 HW2         39.1490    22.1030   100.9200 HW2           1 RES     
    6500 OW           6.9570     1.2270    95.1230 OW            1 RES     
    6501 HW1          7.6790     1.3690    95.7980 HW1           1 RES     
    6502 HW2          7.1010     0.3530    94.6580 HW2           1 RES     
    6503 OW          39.1650     2.0260   109.2410 OW            1 RES     
    6504 HW1         38.3020     2.4800   109.0230 HW1           1 RES     
    6505 HW2         39.5100     2.3670   110.1170 HW2           1 RES     
    6506 OW          28.1790    12.2110    96.3890 OW            1 RES     
    6507 HW1         29.1450    12.2440    96.6430 HW1           1 RES     
    6508 HW2         27.7320    11.4580    96.8720 HW2           1 RES     
    6509 OW           9.0930    23.8150   108.1110 OW            1 RES     
    6510 HW1          8.3190    23.9930   108.7180 HW1           1 RES     
    6511 HW2          9.6460    23.0710   108.4840 HW2           1 RES     
    6512 OW          28.0090     7.8720   101.0040 OW            1 RES     
    6513 HW1         28.4070     7.0340   101.3750 HW1           1 RES     
    6514 HW2         27.3430     7.6400   100.2950 HW2           1 RES     
    6515 OW           7.3650    21.3560    87.8640 OW            1 RES     
    6516 HW1          6.7280    22.0980    88.0690 HW1           1 RES     
    6517 HW2          7.1750    20.9950    86.9500 HW2           1 RES     
    6518 OW           5.4010    45.6290    89.3650 OW            1 RES     
    6519 HW1          4.7580    46.3940    89.3820 HW1           1 RES     
    6520 HW2          5.3950    45.2070    88.4590 HW2           1 RES     
    6521 OW           5.7300     3.8450    97.2410 OW            1 RES     
    6522 HW1          5.9490     2.9490    97.6260 HW1           1 RES     
    6523 HW2          6.4790     4.4810    97.4300 HW2           1 RES     
    6524 OW          55.1920    31.2730   108.2580 OW            1 RES     
    6525 HW1         55.5330    30.5550   107.6520 HW1           1 RES     
    6526 HW2         55.9470    31.6320   108.8080 HW2           1 RES     
    6527 OW          53.7820    38.2320    92.3350 OW            1 RES     
    6528 HW1         53.2650    38.8570    92.9200 HW1           1 RES     
    6529 HW2         54.5370    38.7260    91.9040 HW2           1 RES     
    6530 OW           3.1970    36.3420   107.4700 OW            1 RES     
    6531 HW1          2.7010    35.6200   106.9880 HW1           1 RES     
    6532 HW2          4.1780    36.2400   107.3060 HW2           1 RES     
    6533 OW          39.0850    11.9100    99.2960 OW            1 RES     
    6534 HW1         39.9270    11.4540    99.5830 HW1           1 RES     
    6535 HW2         38.3400    11.2430    99.2570 HW2           1 RES     
    6536 OW          37.9840    33.8420    92.4990 OW            1 RES     
    6537 HW1         38.9270    34.1570    92.5990 HW1           1 RES     
    6538 HW2         37.3590    34.5350    92.8590 HW2           1 RES     
    6539 OW          23.2710    24.4020    88.8830 OW            1 RES     
    6540 HW1         22.7540    25.1460    89.3040 HW1           1 RES     
    6541 HW2         22.6380    23.7290    88.5000 HW2           1 RES     
    6542 OW          47.6480    14.0010   107.2420 OW            1 RES     
    6543 HW1         47.4430    14.4010   108.1350 HW1           1 RES     
    6544 HW2         48.5890    13.6610   107.2370 HW2           1 RES     
    6545 OW           4.2140    24.0630    98.4470 OW            1 RES     
    6546 HW1          4.5580    23.1480    98.2410 HW1           1 RES     
    6547 HW2          3.7120    24.0450    99.3120 HW2           1 RES     
    6548 OW          45.5020     0.3240   102.2070 OW            1 RES     
    6549 HW1         46.3150     0.5060   102.7590 HW1           1 RES     
    6550 HW2         44.6890     0.3600   102.7880 HW2           1 RES     
    6551 OW           8.5010    37.3850   101.7540 OW            1 RES     
    6552 HW1          8.2930    37.4650   100.7790 HW1           1 RES     
    6553 HW2          8.9020    38.2410   102.0810 HW2           1 RES     
    6554 OW          44.5630    44.3550   101.8800 OW            1 RES     
    6555 HW1         44.9130    43.4560   101.6190 HW1           1 RES     
    6556 HW2         44.5790    44.4430   102.8760 HW2           1 RES     
    6557 OW          28.1810    11.2380   105.4480 OW            1 RES     
    6558 HW1         27.5050    11.9640   105.3280 HW1           1 RES     
    6559 HW2         29.0160    11.4740   104.9510 HW2           1 RES     
    6560 OW          26.2080    28.7150    93.1650 OW            1 RES     
    6561 HW1         26.6410    29.4200    93.7250 HW1           1 RES     
    6562 HW2         26.6720    27.8410    93.3110 HW2           1 RES     
    6563 OW          39.5680    42.8990   104.2430 OW            1 RES     
    6564 HW1         38.8100    42.5380   104.7860 HW1           1 RES     
    6565 HW2         40.3810    42.9830   104.8180 HW2           1 RES     
    6566 OW          51.3610    15.9190   108.5900 OW            1 RES     
    6567 HW1         50.7320    15.1460   108.6630 HW1           1 RES     
    6568 HW2         50.9440    16.6380   108.0350 HW2           1 RES     
    6569 OW          16.0630    15.5520    90.1800 OW            1 RES     
    6570 HW1         16.6970    14.8240    90.4380 HW1           1 RES     
    6571 HW2         15.9210    16.1630    90.9590 HW2           1 RES     
    6572 OW          40.5400     8.3520   103.4720 OW            1 RES     
    6573 HW1         39.5510     8.3670   103.3280 HW1           1 RES     
    6574 HW2         41.0070     8.4750   102.5970 HW2           1 RES     
    6575 OW          41.7110    27.6810    87.9050 OW            1 RES     
    6576 HW1         41.9720    28.6430    87.8430 HW1           1 RES     
    6577 HW2         40.8750    27.5950    88.4470 HW2           1 RES     
    6578 OW          44.6230    41.1050   110.5160 OW            1 RES     
    6579 HW1         45.5770    41.4000   110.4890 HW1           1 RES     
    6580 HW2         44.0810    41.7720   111.0260 HW2           1 RES     
    6581 OW          37.4130    47.5600   107.9730 OW            1 RES     
    6582 HW1         37.0060    48.4680   107.8810 HW1           1 RES     
    6583 HW2         37.0010    46.9410   107.3040 HW2           1 RES     
    6584 OW          17.8270     7.7890   103.6960 OW            1 RES     
    6585 HW1         18.3950     8.3100   103.0590 HW1           1 RES     
    6586 HW2         17.0380     8.3400   103.9680 HW2           1 RES     
    6587 OW          39.1920    42.4070    96.7060 OW            1 RES     
    6588 HW1         38.8260    41.9680    97.5260 HW1           1 RES     
    6589 HW2         39.2410    43.3960    96.8510 HW2           1 RES     
    6590 OW           6.0500    15.3560    92.9960 OW            1 RES     
    6591 HW1          6.4760    14.4520    92.9930 HW1           1 RES     
    6592 HW2          6.7620    16.0600    92.9890 HW2           1 RES     
    6593 OW           0.3770    35.2110   101.3140 OW            1 RES     
    6594 HW1          0.0260    36.1440   101.2560 HW1           1 RES     
    6595 HW2          1.3710    35.2200   101.2040 HW2           1 RES     
    6596 OW          55.7950     3.1230    96.8340 OW            1 RES     
    6597 HW1         55.6320     2.2090    97.2030 HW1           1 RES     
    6598 HW2         56.6620     3.1310    96.3340 HW2           1 RES     
    6599 OW          34.6760    17.2270   105.8150 OW            1 RES     
    6600 HW1         34.9800    17.4470   104.8890 HW1           1 RES     
    6601 HW2         35.4550    16.9120   106.3560 HW2           1 RES     
    6602 OW          11.0040    13.0170    93.1390 OW            1 RES     
    6603 HW1         11.3630    12.6070    92.3020 HW1           1 RES     
    6604 HW2         11.6490    13.7030    93.4780 HW2           1 RES     
    6605 OW          10.5100    12.0140   104.7690 OW            1 RES     
    6606 HW1         10.4440    13.0070   104.6760 HW1           1 RES     
    6607 HW2         11.3830    11.7010   104.3940 HW2           1 RES     
    6608 OW          39.4050     0.3220   102.5740 OW            1 RES     
    6609 HW1         40.2460     0.6120   103.0300 HW1           1 RES     
    6610 HW2         38.8140     1.1150   102.4270 HW2           1 RES     
    6611 OW          35.9360    34.4800    98.5820 OW            1 RES     
    6612 HW1         36.5170    33.6730    98.6780 HW1           1 RES     
    6613 HW2         35.0020    34.2540    98.8630 HW2           1 RES     
    6614 OW           7.7770    22.2860   110.8580 OW            1 RES     
    6615 HW1          7.9680    22.1620   109.8850 HW1           1 RES     
    6616 HW2          7.4460    21.4250   111.2460 HW2           1 RES     
    6617 OW           8.9640    44.1830   105.2450 OW            1 RES     
    6618 HW1          9.4660    43.3290   105.1100 HW1           1 RES     
    6619 HW2          9.2210    44.8380   104.5350 HW2           1 RES     
    6620 OW           4.5840    25.0710   110.0170 OW            1 RES     
    6621 HW1          3.7070    25.5210   109.8520 HW1           1 RES     
    6622 HW2          4.7460    25.0060   111.0020 HW2           1 RES     
    6623 OW          24.1970     2.1640   108.7020 OW            1 RES     
    6624 HW1         23.6540     3.0030   108.6870 HW1           1 RES     
    6625 HW2         23.6290     1.4040   109.0170 HW2           1 RES     
    6626 OW          57.0140    42.9110   100.3710 OW            1 RES     
    6627 HW1         57.4820    43.4800   101.0470 HW1           1 RES     
    6628 HW2         57.6680    42.2760    99.9600 HW2           1 RES     
    6629 OW          15.4090     9.5290   100.1160 OW            1 RES     
    6630 HW1         14.4490     9.5430   100.3940 HW1           1 RES     
    6631 HW2         15.9750     9.9020   100.8520 HW2           1 RES     
    6632 OW          57.7710     7.5870    94.3280 OW            1 RES     
    6633 HW1         58.4180     7.4600    95.0790 HW1           1 RES     
    6634 HW2         56.9170     7.9660    94.6830 HW2           1 RES     
    6635 OW          28.8630    44.4130   100.0960 OW            1 RES     
    6636 HW1         29.6290    44.9710   100.4120 HW1           1 RES     
    6637 HW2         28.7920    43.5910   100.6620 HW2           1 RES     
    6638 OW           0.6870     4.4650    95.8820 OW            1 RES     
    6639 HW1          0.5870     3.4790    95.7540 HW1           1 RES     
    6640 HW2          1.6580     4.6950    95.9560 HW2           1 RES     
    6641 OW          52.6730     5.2940    87.3910 OW            1 RES     
    6642 HW1         52.4120     4.4890    87.9230 HW1           1 RES     
    6643 HW2         53.6390     5.5000    87.5480 HW2           1 RES     
    6644 OW          10.3690    31.4450    92.3360 OW            1 RES     
    6645 HW1          9.9200    32.3280    92.4630 HW1           1 RES     
    6646 HW2          9.9630    30.9730    91.5530 HW2           1 RES     
    6647 OW          50.0050     9.6440    91.4260 OW            1 RES     
    6648 HW1         50.2020    10.5990    91.2090 HW1           1 RES     
    6649 HW2         49.7550     9.1560    90.5900 HW2           1 RES     
    6650 OW          55.9900    48.4310   108.6050 OW            1 RES     
    6651 HW1         56.3280    47.4900   108.6190 HW1           1 RES     
    6652 HW2         55.0220    48.4340   108.3550 HW2           1 RES     
    6653 OW           8.2920    41.1270   102.9880 OW            1 RES     
    6654 HW1          8.4980    42.0120   103.4040 HW1           1 RES     
    6655 HW2          9.1430    40.6280   102.8260 HW2           1 RES     
    6656 OW          48.0350    25.6290   104.4990 OW            1 RES     
    6657 HW1         47.4890    24.9220   104.0490 HW1           1 RES     
    6658 HW2         47.9630    26.4840   103.9850 HW2           1 RES     
    6659 OW          34.4700    27.2520    94.3870 OW            1 RES     
    6660 HW1         33.8280    28.0180    94.3720 HW1           1 RES     
    6661 HW2         35.4070    27.6020    94.3980 HW2           1 RES     
    6662 OW          48.6000    28.8430   107.8400 OW            1 RES     
    6663 HW1         48.7250    27.9180   107.4830 HW1           1 RES     
    6664 HW2         49.1690    28.9670   108.6530 HW2           1 RES     
    6665 OW           0.2580    17.5390   105.9060 OW            1 RES     
    6666 HW1          0.5820    18.3100   105.3590 HW1           1 RES     
    6667 HW2          0.8420    16.7450   105.7440 HW2           1 RES     
    6668 OW          24.9000    10.5560    98.0540 OW            1 RES     
    6669 HW1         25.6170    10.6880    97.3700 HW1           1 RES     
    6670 HW2         24.3440    11.3850    98.1180 HW2           1 RES     
    6671 OW          28.3320    21.7270   105.8440 OW            1 RES     
    6672 HW1         29.0100    22.2200   106.3890 HW1           1 RES     
    6673 HW2         28.7300    20.8730   105.5090 HW2           1 RES     
    6674 OW          49.7810    12.8960   100.3540 OW            1 RES     
    6675 HW1         49.0270    12.3530   100.7240 HW1           1 RES     
    6676 HW2         50.1560    13.4800   101.0730 HW2           1 RES     
    6677 OW          52.6790     7.1720   105.1710 OW            1 RES     
    6678 HW1         51.7330     7.0410   105.4660 HW1           1 RES     
    6679 HW2         52.9850     6.3650   104.6650 HW2           1 RES     
    6680 OW          20.4430     8.8810    95.2780 OW            1 RES     
    6681 HW1         20.3830     8.2470    94.5080 HW1           1 RES     
    6682 HW2         20.5180     8.3650    96.1310 HW2           1 RES     
    6683 OW          44.2890     7.9820    98.3810 OW            1 RES     
    6684 HW1         44.2270     8.8630    97.9130 HW1           1 RES     
    6685 HW2         44.8730     7.3640    97.8550 HW2           1 RES     
    6686 OW           4.3850     5.9580    93.5160 OW            1 RES     
    6687 HW1          4.6090     6.7680    94.0570 HW1           1 RES     
    6688 HW2          5.1510     5.3150    93.5460 HW2           1 RES     
    6689 OW          50.9120     1.7870    98.0900 OW            1 RES     
    6690 HW1         50.9630     2.7760    98.2280 HW1           1 RES     
    6691 HW2         49.9880     1.4680    98.3000 HW2           1 RES     
    6692 OW          17.1710    18.7410    98.5030 OW            1 RES     
    6693 HW1         16.8290    19.6330    98.2080 HW1           1 RES     
    6694 HW2         16.4290    18.2220    98.9260 HW2           1 RES     
    6695 OW          28.0380    23.4920   110.2190 OW            1 RES     
    6696 HW1         27.4870    22.7410   110.5800 HW1           1 RES     
    6697 HW2         28.2690    23.3080   109.2630 HW2           1 RES     
    6698 OW          12.3080    43.3090   109.8740 OW            1 RES     
    6699 HW1         12.1060    42.3360   109.7770 HW1           1 RES     
    6700 HW2         12.3230    43.5520   110.8440 HW2           1 RES     
    6701 OW          13.6260    11.0590    86.1610 OW            1 RES     
    6702 HW1         13.3420    12.0170    86.1890 HW1           1 RES     
    6703 HW2         13.8430    10.7480    87.0870 HW2           1 RES     
    6704 OW          44.2310    39.4250   104.8480 OW            1 RES     
    6705 HW1         45.0040    39.9670   104.5200 HW1           1 RES     
    6706 HW2         43.4370    39.5880   104.2610 HW2           1 RES     
    6707 OW          10.6840     4.2200    97.6620 OW            1 RES     
    6708 HW1         11.6200     4.4840    97.4280 HW1           1 RES     
    6709 HW2         10.2040     5.0060    98.0540 HW2           1 RES     
    6710 OW          13.2410    48.0380   104.8360 OW            1 RES     
    6711 HW1         14.0530    48.6040   104.9730 HW1           1 RES     
    6712 HW2         12.4590    48.6220   104.6180 HW2           1 RES     
    6713 OW          36.0070    41.4050    93.9910 OW            1 RES     
    6714 HW1         36.3360    41.0380    94.8600 HW1           1 RES     
    6715 HW2         35.7270    42.3580    94.1150 HW2           1 RES     
    6716 OW          59.2190    41.5920   101.4870 OW            1 RES     
    6717 HW1         59.4490    42.5640   101.4860 HW1           1 RES     
    6718 HW2         60.0580    41.0490   101.4580 HW2           1 RES     
    6719 OW          17.9260    12.3760    97.6530 OW            1 RES     
    6720 HW1         17.3550    12.9030    98.2810 HW1           1 RES     
    6721 HW2         17.8580    12.7650    96.7340 HW2           1 RES     
    6722 OW          25.2360    11.3950    92.9520 OW            1 RES     
    6723 HW1         25.0020    10.4340    92.8070 HW1           1 RES     
    6724 HW2         25.7620    11.7320    92.1710 HW2           1 RES     
    6725 OW           3.0990    20.9380    91.8670 OW            1 RES     
    6726 HW1          2.7010    21.4710    92.6130 HW1           1 RES     
    6727 HW2          4.0370    20.6820    92.1030 HW2           1 RES     
    6728 OW          29.2110     7.5810   103.8140 OW            1 RES     
    6729 HW1         29.9150     8.2870   103.8810 HW1           1 RES     
    6730 HW2         28.3390     8.0020   103.5620 HW2           1 RES     
    6731 OW          37.5230     4.2370    93.7510 OW            1 RES     
    6732 HW1         37.0270     3.3720    93.6900 HW1           1 RES     
    6733 HW2         36.8790     4.9800    93.9340 HW2           1 RES     
    6734 OW          23.6680     7.1730   103.8280 OW            1 RES     
    6735 HW1         23.8570     7.9950   104.3640 HW1           1 RES     
    6736 HW2         24.4010     7.0330   103.1620 HW2           1 RES     
    6737 OW          44.9080    34.6780    91.3600 OW            1 RES     
    6738 HW1         44.4520    34.2760    92.1530 HW1           1 RES     
    6739 HW2         44.5910    34.2240    90.5260 HW2           1 RES     
    6740 OW          19.1200    22.6290   106.3190 OW            1 RES     
    6741 HW1         18.8660    23.3930   105.7260 HW1           1 RES     
    6742 HW2         20.0360    22.7850   106.6900 HW2           1 RES     
    6743 OW          27.0370    44.3220    86.4440 OW            1 RES     
    6744 HW1         26.4440    44.8740    87.0290 HW1           1 RES     
    6745 HW2         27.0390    43.3760    86.7690 HW2           1 RES     
    6746 OW          32.2030    47.9030    95.7160 OW            1 RES     
    6747 HW1         32.7090    47.0450    95.8010 HW1           1 RES     
    6748 HW2         31.2550    47.7080    95.4670 HW2           1 RES     
    6749 OW          42.4220     6.7570    97.5010 OW            1 RES     
    6750 HW1         42.5080     5.7610    97.4990 HW1           1 RES     
    6751 HW2         41.9950     7.0530    98.3560 HW2           1 RES     
    6752 OW          51.4970    15.1070   104.7920 OW            1 RES     
    6753 HW1         51.1030    15.8700   104.2800 HW1           1 RES     
    6754 HW2         52.4530    14.9830   104.5220 HW2           1 RES     
    6755 OW          19.7160    38.4890   109.0410 OW            1 RES     
    6756 HW1         20.3360    37.7390   108.8130 HW1           1 RES     
    6757 HW2         18.9090    38.4470   108.4510 HW2           1 RES     
    6758 OW          58.7450     4.9490    94.5130 OW            1 RES     
    6759 HW1         59.1320     5.0030    93.5930 HW1           1 RES     
    6760 HW2         57.7550     4.8250    94.4520 HW2           1 RES     
    6761 OW           1.0770    27.9010   109.7320 OW            1 RES     
    6762 HW1          1.5110    28.7050   109.3260 HW1           1 RES     
    6763 HW2          0.0900    27.9390   109.5740 HW2           1 RES     
    6764 OW          56.5740    38.8440   101.5280 OW            1 RES     
    6765 HW1         57.4220    38.6760   101.0250 HW1           1 RES     
    6766 HW2         55.9780    39.4370   100.9880 HW2           1 RES     
    6767 OW          24.9700    44.1910    89.2710 OW            1 RES     
    6768 HW1         24.7790    45.0350    88.7720 HW1           1 RES     
    6769 HW2         24.9870    43.4220    88.6320 HW2           1 RES     
    6770 OW          21.1880    45.7360   104.3380 OW            1 RES     
    6771 HW1         20.2530    46.0820   104.2710 HW1           1 RES     
    6772 HW2         21.1910    44.7480   104.1880 HW2           1 RES     
    6773 OW          28.7450    37.2720    97.8930 OW            1 RES     
    6774 HW1         28.6100    36.3700    97.4850 HW1           1 RES     
    6775 HW2         28.4290    37.2610    98.8420 HW2           1 RES     
    6776 OW          21.0100    42.1720    87.8850 OW            1 RES     
    6777 HW1         20.5020    42.2560    88.7420 HW1           1 RES     
    6778 HW2         21.5750    41.3470    87.9120 HW2           1 RES     
    6779 OW          41.5980    36.4560    88.8210 OW            1 RES     
    6780 HW1         40.7570    36.7280    88.3560 HW1           1 RES     
    6781 HW2         41.4500    35.5890    89.2980 HW2           1 RES     
    6782 OW           6.0090    12.2100   104.5510 OW            1 RES     
    6783 HW1          6.4210    13.0770   104.8310 HW1           1 RES     
    6784 HW2          5.1280    12.3860   104.1110 HW2           1 RES     
    6785 OW          35.8910    24.4010   102.7820 OW            1 RES     
    6786 HW1         34.9480    24.1500   102.9980 HW1           1 RES     
    6787 HW2         36.2270    23.8250   102.0360 HW2           1 RES     
    6788 OW          25.1750    37.3920    95.4600 OW            1 RES     
    6789 HW1         24.4800    38.1070    95.5250 HW1           1 RES     
    6790 HW2         25.6180    37.4360    94.5640 HW2           1 RES     
    6791 OW          41.8150    35.3880   108.2220 OW            1 RES     
    6792 HW1         42.2740    34.8120   108.8970 HW1           1 RES     
    6793 HW2         40.9900    34.9270   107.8950 HW2           1 RES     
    6794 OW          33.0470    22.3750   105.9340 OW            1 RES     
    6795 HW1         32.1880    22.8230   105.6880 HW1           1 RES     
    6796 HW2         33.8080    23.0060   105.7840 HW2           1 RES     
    6797 OW          28.6800     2.0290   104.6960 OW            1 RES     
    6798 HW1         27.9130     1.3970   104.8010 HW1           1 RES     
    6799 HW2         29.4950     1.6410   105.1270 HW2           1 RES     
    6800 OW          12.0640    46.1940   107.2910 OW            1 RES     
    6801 HW1         11.8680    45.2330   107.1000 HW1           1 RES     
    6802 HW2         11.3640    46.5630   107.9020 HW2           1 RES     
    6803 OW           6.8670     3.0250   105.5180 OW            1 RES     
    6804 HW1          7.4410     2.3750   105.0210 HW1           1 RES     
    6805 HW2          7.4460     3.6910   105.9890 HW2           1 RES     
    6806 OW           9.5550     4.5450    94.4380 OW            1 RES     
    6807 HW1          8.9990     4.6550    95.2620 HW1           1 RES     
    6808 HW2         10.5240     4.5750    94.6830 HW2           1 RES     
    6809 OW           5.0560    21.4000    96.9290 OW            1 RES     
    6810 HW1          5.3860    21.1430    97.8360 HW1           1 RES     
    6811 HW2          4.8840    20.5750    96.3900 HW2           1 RES     
    6812 OW           1.3830    44.3020    95.6640 OW            1 RES     
    6813 HW1          2.0020    43.6580    95.2160 HW1           1 RES     
    6814 HW2          0.4360    44.0340    95.4840 HW2           1 RES     
    6815 OW          18.6620    33.9190   100.9490 OW            1 RES     
    6816 HW1         19.4600    34.4110   101.2930 HW1           1 RES     
    6817 HW2         18.8830    32.9480   100.8560 HW2           1 RES     
    6818 OW          56.3490    21.7240    98.3910 OW            1 RES     
    6819 HW1         55.7400    21.0410    98.7920 HW1           1 RES     
    6820 HW2         56.4780    22.4770    99.0370 HW2           1 RES     
    6821 OW          55.8250    34.8630    95.5300 OW            1 RES     
    6822 HW1         56.6660    35.3460    95.7710 HW1           1 RES     
    6823 HW2         55.0360    35.4360    95.7510 HW2           1 RES     
    6824 OW          47.8310     2.4870   106.2500 OW            1 RES     
    6825 HW1         46.8420     2.5860   106.1480 HW1           1 RES     
    6826 HW2         48.2560     3.3920   106.2710 HW2           1 RES     
    6827 OW          16.2070    22.9880   103.6280 OW            1 RES     
    6828 HW1         15.9240    22.0900   103.2930 HW1           1 RES     
    6829 HW2         17.0680    22.9010   104.1290 HW2           1 RES     
    6830 OW          61.7680    11.1580   108.8300 OW            1 RES     
    6831 HW1         62.6110    10.6890   109.0900 HW1           1 RES     
    6832 HW2         61.8610    12.1370   109.0100 HW2           1 RES     
    6833 OW           0.3960    34.6610    92.0490 OW            1 RES     
    6834 HW1          1.0590    34.4680    91.3270 HW1           1 RES     
    6835 HW2          0.8630    34.6820    92.9340 HW2           1 RES     
    6836 OW          57.3670    22.6460   111.2380 OW            1 RES     
    6837 HW1         57.2990    21.6610   111.0830 HW1           1 RES     
    6838 HW2         58.3060    22.9470   111.0740 HW2           1 RES     
    6839 OW           0.8630    33.4510    99.9980 OW            1 RES     
    6840 HW1          1.7950    33.3770    99.6450 HW1           1 RES     
    6841 HW2          0.8260    33.0710   100.9230 HW2           1 RES     
    6842 OW          37.1940    13.6590   110.0550 OW            1 RES     
    6843 HW1         37.3160    12.8370   109.5000 HW1           1 RES     
    6844 HW2         36.6940    14.3470   109.5280 HW2           1 RES     
    6845 OW          14.8040    39.3800   108.4290 OW            1 RES     
    6846 HW1         15.7070    39.7590   108.2290 HW1           1 RES     
    6847 HW2         14.4240    38.9670   107.6010 HW2           1 RES     
    6848 OW          40.1580    28.3180   102.0230 OW            1 RES     
    6849 HW1         41.1030    28.6140   101.8870 HW1           1 RES     
    6850 HW2         39.5930    29.1050   102.2690 HW2           1 RES     
    6851 OW          15.3140    48.8320   109.2160 OW            1 RES     
    6852 HW1         15.7670    48.0230   109.5900 HW1           1 RES     
    6853 HW2         15.1620    48.7060   108.2360 HW2           1 RES     
    6854 OW          15.1230    33.0440    95.9010 OW            1 RES     
    6855 HW1         14.1390    33.0890    96.0690 HW1           1 RES     
    6856 HW2         15.3500    32.1690    95.4720 HW2           1 RES     
    6857 OW          23.7690    40.1790   109.8460 OW            1 RES     
    6858 HW1         24.5990    39.7320   109.5170 HW1           1 RES     
    6859 HW2         23.7730    40.1960   110.8460 HW2           1 RES     
    6860 OW           4.4800    37.2320   100.5590 OW            1 RES     
    6861 HW1          4.4160    36.4780    99.9060 HW1           1 RES     
    6862 HW2          4.1180    36.9380   101.4450 HW2           1 RES     
    6863 OW          61.8290    37.5410    94.7230 OW            1 RES     
    6864 HW1         61.1620    38.2520    94.4990 HW1           1 RES     
    6865 HW2         62.5810    37.9420    95.2470 HW2           1 RES     
    6866 OW          48.8680    47.6560    87.0130 OW            1 RES     
    6867 HW1         49.3820    48.3030    87.5750 HW1           1 RES     
    6868 HW2         48.2370    47.1390    87.5930 HW2           1 RES     
    6869 OW          45.0550    12.5980   107.7440 OW            1 RES     
    6870 HW1         45.8090    11.9450   107.6830 HW1           1 RES     
    6871 HW2         45.4190    13.5290   107.7660 HW2           1 RES     
    6872 OW          61.8170    28.9070   106.7040 OW            1 RES     
    6873 HW1         61.2110    28.7750   105.9200 HW1           1 RES     
    6874 HW2         61.6560    28.1830   107.3760 HW2           1 RES     
    6875 OW          18.1310    14.9210   108.2770 OW            1 RES     
    6876 HW1         18.1880    15.0430   109.2670 HW1           1 RES     
    6877 HW2         17.4300    15.5290   107.9050 HW2           1 RES     
    6878 OW           6.2710    43.2590   108.9920 OW            1 RES     
    6879 HW1          7.0820    43.5620   109.4920 HW1           1 RES     
    6880 HW2          6.3190    42.2710   108.8440 HW2           1 RES     
    6881 OW          28.0970     2.8780    88.3430 OW            1 RES     
    6882 HW1         27.5040     3.5580    87.9140 HW1           1 RES     
    6883 HW2         28.7100     2.4890    87.6550 HW2           1 RES     
    6884 OW          51.0280    30.6210    97.9310 OW            1 RES     
    6885 HW1         50.1820    31.1500    97.9970 HW1           1 RES     
    6886 HW2         51.7900    31.1650    98.2850 HW2           1 RES     
    6887 OW          39.9490    46.2900    97.0440 OW            1 RES     
    6888 HW1         40.8300    45.8170    97.0480 HW1           1 RES     
    6889 HW2         40.0410    47.1690    97.5130 HW2           1 RES     
    6890 OW          51.7170    32.5200   107.7180 OW            1 RES     
    6891 HW1         51.4300    33.4460   107.4740 HW1           1 RES     
    6892 HW2         51.4840    31.8910   106.9760 HW2           1 RES     
    6893 OW           4.1540    24.7200   107.1240 OW            1 RES     
    6894 HW1          4.1000    24.2470   108.0030 HW1           1 RES     
    6895 HW2          3.3710    25.3340   107.0260 HW2           1 RES     
    6896 OW           5.1960    39.4490   104.7570 OW            1 RES     
    6897 HW1          5.6340    38.5650   104.5980 HW1           1 RES     
    6898 HW2          4.6490    39.4050   105.5940 HW2           1 RES     
    6899 OW          45.1120    48.8350   107.0660 OW            1 RES     
    6900 HW1         44.1870    48.4640   107.1340 HW1           1 RES     
    6901 HW2         45.7440    48.1090   106.7930 HW2           1 RES     
    6902 OW          36.7070    13.5540   104.9030 OW            1 RES     
    6903 HW1         36.7400    14.3890   104.3540 HW1           1 RES     
    6904 HW2         37.4260    12.9280   104.6010 HW2           1 RES     
    6905 OW          32.4830    47.3510    92.0200 OW            1 RES     
    6906 HW1         32.0590    48.2270    91.7880 HW1           1 RES     
    6907 HW2         33.2390    47.5040    92.6550 HW2           1 RES     
    6908 OW          54.3670     8.3970   101.6830 OW            1 RES     
    6909 HW1         54.6950     8.5330   100.7490 HW1           1 RES     
    6910 HW2         53.3670     8.4260   101.6920 HW2           1 RES     
    6911 OW          29.2870    36.0500   103.7300 OW            1 RES     
    6912 HW1         29.3380    35.3290   103.0390 HW1           1 RES     
    6913 HW2         30.0870    35.9950   104.3280 HW2           1 RES     
    6914 OW          37.6540    21.1570    93.6370 OW            1 RES     
    6915 HW1         37.5990    20.1670    93.5070 HW1           1 RES     
    6916 HW2         38.6130    21.4380    93.6610 HW2           1 RES     
    6917 OW           0.5790    42.2820    98.9580 OW            1 RES     
    6918 HW1          0.0000    43.0960    98.9750 HW1           1 RES     
    6919 HW2          0.0030    41.4640    98.9320 HW2           1 RES     
    6920 OW           6.0110    15.0150   109.1330 OW            1 RES     
    6921 HW1          5.0260    14.9080   109.2580 HW1           1 RES     
    6922 HW2          6.3610    15.6800   109.7940 HW2           1 RES     
    6923 OW          29.7220    18.5880   101.9290 OW            1 RES     
    6924 HW1         30.2500    18.8160   101.1120 HW1           1 RES     
    6925 HW2         28.7670    18.4330   101.6770 HW2           1 RES     
    6926 OW          23.3530    16.2260    99.4140 OW            1 RES     
    6927 HW1         24.3470    16.3240    99.4410 HW1           1 RES     
    6928 HW2         23.1150    15.2600    99.3070 HW2           1 RES     
    6929 OW          38.1670     1.5250    93.3230 OW            1 RES     
    6930 HW1         37.3590     1.1000    93.7290 HW1           1 RES     
    6931 HW2         38.9880     1.1960    93.7900 HW2           1 RES     
    6932 OW          16.8520    35.6340   103.5550 OW            1 RES     
    6933 HW1         17.6600    35.9710   103.0740 HW1           1 RES     
    6934 HW2         16.0580    36.1870   103.3020 HW2           1 RES     
    6935 OW          48.9870    26.5740    92.4910 OW            1 RES     
    6936 HW1         48.0030    26.7490    92.4750 HW1           1 RES     
    6937 HW2         49.4470    27.1970    91.8590 HW2           1 RES     
    6938 OW          29.4820     0.0310   106.9280 OW            1 RES     
    6939 HW1         28.6720     0.6150   106.9170 HW1           1 RES     
    6940 HW2         30.3040     0.5990   106.8870 HW2           1 RES     
    6941 OW          51.7280    38.2920    89.2880 OW            1 RES     
    6942 HW1         51.9000    38.3120    88.3030 HW1           1 RES     
    6943 HW2         51.7700    39.2220    89.6530 HW2           1 RES     
    6944 OW          41.3480    39.8730   101.5150 OW            1 RES     
    6945 HW1         42.0830    39.2580   101.7990 HW1           1 RES     
    6946 HW2         41.3760    39.9910   100.5220 HW2           1 RES     
    6947 OW          44.3820    11.5560    90.7030 OW            1 RES     
    6948 HW1         45.3160    11.4200    90.3760 HW1           1 RES     
    6949 HW2         44.3840    11.6280    91.7000 HW2           1 RES     
    6950 OW          40.4620     3.4750   106.8330 OW            1 RES     
    6951 HW1         41.4520     3.6130   106.8530 HW1           1 RES     
    6952 HW2         40.2590     2.4980   106.8980 HW2           1 RES     
    6953 OW          25.2330     8.5450   111.1610 OW            1 RES     
    6954 HW1         24.5690     7.7980   111.1580 HW1           1 RES     
    6955 HW2         26.1580     8.1710   111.0940 HW2           1 RES     
    6956 OW          18.2730    33.6590    88.4650 OW            1 RES     
    6957 HW1         18.3060    32.6830    88.2520 HW1           1 RES     
    6958 HW2         19.2030    34.0080    88.5790 HW2           1 RES     
    6959 OW           0.3060    25.2990    94.8450 OW            1 RES     
    6960 HW1          0.9130    26.0690    95.0370 HW1           1 RES     
    6961 HW2          0.2170    24.7310    95.6640 HW2           1 RES     
    6962 OW           4.1650    36.9520    90.5550 OW            1 RES     
    6963 HW1          3.9090    36.0840    90.9800 HW1           1 RES     
    6964 HW2          3.7040    37.7030    91.0280 HW2           1 RES     
    6965 OW          54.8460    12.6920    98.9660 OW            1 RES     
    6966 HW1         54.0150    12.1620    99.1300 HW1           1 RES     
    6967 HW2         54.7590    13.5920    99.3920 HW2           1 RES     
    6968 OW          48.3290     4.2580   100.8420 OW            1 RES     
    6969 HW1         47.3990     4.1690   101.1980 HW1           1 RES     
    6970 HW2         48.8490     3.4310   101.0580 HW2           1 RES     
    6971 OW          62.0220    30.5210    97.8430 OW            1 RES     
    6972 HW1         61.2190    29.9270    97.8250 HW1           1 RES     
    6973 HW2         61.7300    31.4770    97.8460 HW2           1 RES     
    6974 OW          53.5050    10.0180    93.9560 OW            1 RES     
    6975 HW1         52.6350     9.7160    94.3460 HW1           1 RES     
    6976 HW2         54.0420     9.2210    93.6810 HW2           1 RES     
    6977 OW          12.3560    22.1720   102.4050 OW            1 RES     
    6978 HW1         11.3730    22.0800   102.5580 HW1           1 RES     
    6979 HW2         12.7720    21.2640   102.3500 HW2           1 RES     
    6980 OW           7.4110     3.7160   111.0940 OW            1 RES     
    6981 HW1          7.1130     2.7720   111.2300 HW1           1 RES     
    6982 HW2          8.2900     3.7230   110.6160 HW2           1 RES     
    6983 OW          53.0180    22.1350    97.5040 OW            1 RES     
    6984 HW1         52.5010    21.2870    97.3900 HW1           1 RES     
    6985 HW2         53.8170    21.9630    98.0820 HW2           1 RES     
    6986 OW          36.4520    45.1190    95.7880 OW            1 RES     
    6987 HW1         37.2660    44.5560    95.9240 HW1           1 RES     
    6988 HW2         36.7250    46.0360    95.4960 HW2           1 RES     
    6989 OW          21.9140    38.9700    95.2170 OW            1 RES     
    6990 HW1         21.4180    39.5790    94.5980 HW1           1 RES     
    6991 HW2         22.4020    39.5140    95.9000 HW2           1 RES     
    6992 OW          58.4850    16.4570    98.9020 OW            1 RES     
    6993 HW1         58.8580    15.7900    98.2570 HW1           1 RES     
    6994 HW2         57.7070    16.0550    99.3840 HW2           1 RES     
    6995 OW          46.0550     0.4320    90.9040 OW            1 RES     
    6996 HW1         45.7100     0.0000    91.7370 HW1           1 RES     
    6997 HW2         45.4030     1.1240    90.5920 HW2           1 RES     
    6998 OW          38.4740    33.0390   106.1860 OW            1 RES     
    6999 HW1         38.5510    32.7860   107.1500 HW1           1 RES     
    7000 HW2         38.7550    33.9920   106.0670 HW2           1 RES     
    7001 OW          46.5010     6.0560   108.4960 OW            1 RES     
    7002 HW1         45.9030     6.2150   107.7110 HW1           1 RES     
    7003 HW2         46.0220     5.4940   109.1710 HW2           1 RES     
    7004 OW          61.1890    25.9550   104.2640 OW            1 RES     
    7005 HW1         61.5480    25.0230   104.2990 HW1           1 RES     
    7006 HW2         60.2350    25.9340   103.9670 HW2           1 RES     
    7007 OW          41.5020     1.3320    99.2370 OW            1 RES     
    7008 HW1         42.0480     0.6940    99.7790 HW1           1 RES     
    7009 HW2         41.1660     2.0680    99.8260 HW2           1 RES     
    7010 OW          31.5330     1.9770   104.3460 OW            1 RES     
    7011 HW1         31.7420     1.8330   105.3130 HW1           1 RES     
    7012 HW2         31.1370     2.8870   104.2220 HW2           1 RES     
    7013 OW          59.1200    20.2370    90.1330 OW            1 RES     
    7014 HW1         59.0580    20.4020    89.1490 HW1           1 RES     
    7015 HW2         58.8380    19.2990    90.3330 HW2           1 RES     
    7016 OW          47.1950     7.6020    97.3110 OW            1 RES     
    7017 HW1         47.3620     6.9850    96.5430 HW1           1 RES     
    7018 HW2         47.2220     7.0850    98.1670 HW2           1 RES     
    7019 OW          41.1740    40.2800   107.0650 OW            1 RES     
    7020 HW1         42.0740    39.8450   107.0510 HW1           1 RES     
    7021 HW2         40.4650    39.5760   107.1050 HW2           1 RES     
    7022 OW          44.4490    16.5830    92.2870 OW            1 RES     
    7023 HW1         44.9920    15.8500    92.6960 HW1           1 RES     
    7024 HW2         44.3270    16.4030    91.3110 HW2           1 RES     
    7025 OW          58.6350    12.8480    90.1820 OW            1 RES     
    7026 HW1         58.9560    12.8900    89.2360 HW1           1 RES     
    7027 HW2         59.2380    13.3940    90.7640 HW2           1 RES     
    7028 OW          19.2330     2.1950   107.2980 OW            1 RES     
    7029 HW1         19.7790     2.7030   106.6330 HW1           1 RES     
    7030 HW2         18.3730     2.6790   107.4630 HW2           1 RES     
    7031 OW          60.4530     7.7050    88.2710 OW            1 RES     
    7032 HW1         61.4460     7.6000    88.3120 HW1           1 RES     
    7033 HW2         60.1380     7.5360    87.3370 HW2           1 RES     
    7034 OW          60.1600    33.2530   104.1020 OW            1 RES     
    7035 HW1         60.5430    32.8320   104.9240 HW1           1 RES     
    7036 HW2         60.1700    32.5920   103.3520 HW2           1 RES     
    7037 OW          24.9140    13.0870   107.8350 OW            1 RES     
    7038 HW1         25.6320    13.2870   107.1690 HW1           1 RES     
    7039 HW2         24.3460    12.3360   107.4990 HW2           1 RES     
    7040 OW          48.2640    17.8550    97.7140 OW            1 RES     
    7041 HW1         47.4200    18.2220    97.3250 HW1           1 RES     
    7042 HW2         48.2190    17.8990    98.7120 HW2           1 RES     
    7043 OW          27.9760    20.9570    91.5670 OW            1 RES     
    7044 HW1         28.9040    20.9810    91.9380 HW1           1 RES     
    7045 HW2         27.5820    20.0490    91.7110 HW2           1 RES     
    7046 OW          41.2770    39.9560    90.3820 OW            1 RES     
    7047 HW1         41.9680    39.2970    90.6770 HW1           1 RES     
    7048 HW2         41.4680    40.2430    89.4430 HW2           1 RES     
    7049 OW          27.1570     8.3950    93.9750 OW            1 RES     
    7050 HW1         26.6220     9.1830    93.6710 HW1           1 RES     
    7051 HW2         26.6400     7.5550    93.8050 HW2           1 RES     
    7052 OW           2.9690    42.7310    99.5630 OW            1 RES     
    7053 HW1          2.4400    42.9510   100.3820 HW1           1 RES     
    7054 HW2          2.9340    41.7450    99.3990 HW2           1 RES     
    7055 OW          41.6130    46.1370    99.4100 OW            1 RES     
    7056 HW1         42.3620    46.2530    98.7590 HW1           1 RES     
    7057 HW2         41.1140    45.2960    99.1990 HW2           1 RES     
    7058 OW           1.8390    16.6620   103.7230 OW            1 RES     
    7059 HW1          2.4890    15.9490   103.9830 HW1           1 RES     
    7060 HW2          2.2840    17.5560   103.7750 HW2           1 RES     
    7061 OW          28.6770    14.0560    99.5940 OW            1 RES     
    7062 HW1         28.1230    13.9750    98.7660 HW1           1 RES     
    7063 HW2         29.6450    13.9640    99.3590 HW2           1 RES     
    7064 OW          53.6210     6.7440    96.2950 OW            1 RES     
    7065 HW1         53.6840     7.1140    95.3690 HW1           1 RES     
    7066 HW2         54.5320     6.4730    96.6090 HW2           1 RES     
    7067 OW          17.6620    26.3090    94.1220 OW            1 RES     
    7068 HW1         18.0330    25.3970    93.9470 HW1           1 RES     
    7069 HW2         17.0100    26.2650    94.8790 HW2           1 RES     
    7070 OW          43.1370    28.8270   100.6970 OW            1 RES     
    7071 HW1         43.4950    27.8950   100.6600 HW1           1 RES     
    7072 HW2         43.8970    29.4750   100.7520 HW2           1 RES     
    7073 OW          39.9870    15.4730   109.6370 OW            1 RES     
    7074 HW1         40.1000    14.4830   109.7100 HW1           1 RES     
    7075 HW2         40.0830    15.8870   110.5420 HW2           1 RES     
    7076 OW          30.4680    45.6410    92.1710 OW            1 RES     
    7077 HW1         31.0010    45.8280    91.3460 HW1           1 RES     
    7078 HW2         30.7070    46.3040    92.8800 HW2           1 RES     
    7079 OW           4.3450    47.2850    97.6000 OW            1 RES     
    7080 HW1          3.3890    47.2060    97.8790 HW1           1 RES     
    7081 HW2          4.5030    48.1880    97.2000 HW2           1 RES     
    7082 OW          11.4440    33.9560   103.8820 OW            1 RES     
    7083 HW1         10.9630    33.6630   103.0570 HW1           1 RES     
    7084 HW2         12.3640    33.5620   103.8900 HW2           1 RES     
    7085 OW           0.5650    40.0320    86.1630 OW            1 RES     
    7086 HW1          0.0000    39.2100    86.2160 HW1           1 RES     
    7087 HW2          0.0000    40.8380    86.3400 HW2           1 RES     
    7088 OW          17.0420    11.0990    88.0730 OW            1 RES     
    7089 HW1         17.9870    11.3660    88.2610 HW1           1 RES     
    7090 HW2         16.4200    11.6850    88.5920 HW2           1 RES     
    7091 OW          52.9400     2.5200    92.4400 OW            1 RES     
    7092 HW1         52.1820     2.5540    93.0900 HW1           1 RES     
    7093 HW2         53.3930     1.6300    92.5020 HW2           1 RES     
    7094 OW          50.4870    13.4370   103.5510 OW            1 RES     
    7095 HW1         51.3930    13.0490   103.7150 HW1           1 RES     
    7096 HW2         49.8760    12.7240   103.2070 HW2           1 RES     
    7097 OW          57.8930    41.1890    95.2990 OW            1 RES     
    7098 HW1         58.0670    42.0190    94.7700 HW1           1 RES     
    7099 HW2         58.4740    40.4490    94.9590 HW2           1 RES     
    7100 OW          29.9580    34.9260    91.4770 OW            1 RES     
    7101 HW1         28.9710    35.0810    91.5010 HW1           1 RES     
    7102 HW2         30.4330    35.8050    91.4280 HW2           1 RES     
    7103 OW          11.5420    41.5250   104.2310 OW            1 RES     
    7104 HW1         11.7600    40.6790   103.7450 HW1           1 RES     
    7105 HW2         10.5700    41.5350   104.4640 HW2           1 RES     
    7106 OW          53.0390    19.7280    94.7480 OW            1 RES     
    7107 HW1         53.8090    20.3400    94.5700 HW1           1 RES     
    7108 HW2         52.8350    19.7240    95.7270 HW2           1 RES     
    7109 OW           8.9030    38.8770    91.4170 OW            1 RES     
    7110 HW1          9.3000    37.9950    91.6680 HW1           1 RES     
    7111 HW2          8.8880    39.4760    92.2180 HW2           1 RES     
    7112 OW          61.2920    20.7500    88.7540 OW            1 RES     
    7113 HW1         62.2220    20.7890    88.3930 HW1           1 RES     
    7114 HW2         60.9550    21.6780    88.9100 HW2           1 RES     
    7115 OW          37.9510    42.8220    94.1240 OW            1 RES     
    7116 HW1         38.5110    43.5290    93.6940 HW1           1 RES     
    7117 HW2         38.5390    42.0790    94.4450 HW2           1 RES     
    7118 OW          26.0420    26.5410   108.3000 OW            1 RES     
    7119 HW1         25.4830    25.8470   107.8480 HW1           1 RES     
    7120 HW2         25.4470    27.2250   108.7230 HW2           1 RES     
    7121 OW          47.4150    40.7400    92.5260 OW            1 RES     
    7122 HW1         46.4550    40.4630    92.5350 HW1           1 RES     
    7123 HW2         47.8310    40.4730    91.6570 HW2           1 RES     
    7124 OW           9.1370    18.3410   105.3660 OW            1 RES     
    7125 HW1          8.7830    18.1000   104.4630 HW1           1 RES     
    7126 HW2          9.1420    17.5300   105.9500 HW2           1 RES     
    7127 OW          47.9740    39.7190   101.7220 OW            1 RES     
    7128 HW1         48.9610    39.8610   101.6510 HW1           1 RES     
    7129 HW2         47.7880    38.7500   101.8900 HW2           1 RES     
    7130 OW          48.3450    40.2720    96.6740 OW            1 RES     
    7131 HW1         47.7960    40.9720    96.2190 HW1           1 RES     
    7132 HW2         49.2130    40.1610    96.1900 HW2           1 RES     
    7133 OW          62.1440    34.1830   103.9100 OW            1 RES     
    7134 HW1         62.5940    33.5080   104.4930 HW1           1 RES     
    7135 HW2         62.6300    34.2490   103.0390 HW2           1 RES     
    7136 OW          47.4960     1.0740   100.6950 OW            1 RES     
    7137 HW1         47.3190     0.2290   100.1910 HW1           1 RES     
    7138 HW2         47.4230     1.8550   100.0740 HW2           1 RES     
    7139 OW          50.9760    35.0670    92.7460 OW            1 RES     
    7140 HW1         50.7330    35.6720    93.5040 HW1           1 RES     
    7141 HW2         51.5250    35.5710    92.0790 HW2           1 RES     
    7142 OW          43.5040    14.1310   101.8500 OW            1 RES     
    7143 HW1         42.8780    13.3550   101.7900 HW1           1 RES     
    7144 HW2         42.9810    14.9840   101.8410 HW2           1 RES     
    7145 OW          25.2120     7.0370   100.3660 OW            1 RES     
    7146 HW1         24.2930     6.6480   100.3280 HW1           1 RES     
    7147 HW2         25.1540     8.0350   100.3450 HW2           1 RES     
    7148 OW          54.8320    28.0640    91.6060 OW            1 RES     
    7149 HW1         53.9560    28.0890    91.1260 HW1           1 RES     
    7150 HW2         55.4830    27.5120    91.0840 HW2           1 RES     
    7151 OW           0.2700    32.4410   109.6190 OW            1 RES     
    7152 HW1          1.1050    32.1710   110.0960 HW1           1 RES     
    7153 HW2          0.0820    33.4070   109.7970 HW2           1 RES     
    7154 OW           6.1550    25.1880    99.1960 OW            1 RES     
    7155 HW1          6.8770    25.8170    98.9110 HW1           1 RES     
    7156 HW2          5.3520    25.7100    99.4840 HW2           1 RES     
    7157 OW           5.2420     6.8320   102.0290 OW            1 RES     
    7158 HW1          5.2330     7.8300   102.0770 HW1           1 RES     
    7159 HW2          4.3830     6.5090   101.6310 HW2           1 RES     
    7160 OW          49.5210    10.5070   103.4880 OW            1 RES     
    7161 HW1         48.6110    10.9170   103.4520 HW1           1 RES     
    7162 HW2         49.4380     9.5120   103.5450 HW2           1 RES     
    7163 OW          61.4500    21.1330    93.9480 OW            1 RES     
    7164 HW1         61.3140    21.2260    94.9340 HW1           1 RES     
    7165 HW2         62.2910    20.6210    93.7740 HW2           1 RES     
    7166 OW          40.5030    22.5020   111.1400 OW            1 RES     
    7167 HW1         39.9680    22.9270   110.4110 HW1           1 RES     
    7168 HW2         40.2190    21.5490   111.2510 HW2           1 RES     
    7169 OW          53.5430    18.6130    92.6040 OW            1 RES     
    7170 HW1         54.5400    18.5980    92.5400 HW1           1 RES     
    7171 HW2         53.1510    18.1080    91.8350 HW2           1 RES     
    7172 OW          12.9270    28.5420    90.1150 OW            1 RES     
    7173 HW1         12.6190    27.6170    90.3380 HW1           1 RES     
    7174 HW2         13.6060    28.5000    89.3820 HW2           1 RES     
    7175 OW          13.2040    23.0660   104.8710 OW            1 RES     
    7176 HW1         13.1470    22.1490   104.4780 HW1           1 RES     
    7177 HW2         14.1650    23.3200   104.9890 HW2           1 RES     
    7178 OW          41.8150    43.7000    88.8520 OW            1 RES     
    7179 HW1         42.5590    43.9430    89.4730 HW1           1 RES     
    7180 HW2         40.9850    43.5200    89.3800 HW2           1 RES     
    7181 OW          60.9100    42.5090    91.4310 OW            1 RES     
    7182 HW1         60.2290    41.8920    91.8250 HW1           1 RES     
    7183 HW2         60.4540    43.3190    91.0640 HW2           1 RES     
    7184 OW          20.1570    36.2080   104.5050 OW            1 RES     
    7185 HW1         20.4550    37.1620   104.5230 HW1           1 RES     
    7186 HW2         20.9380    35.6180   104.2990 HW2           1 RES     
    7187 OW          55.7200    12.5130   103.2890 OW            1 RES     
    7188 HW1         56.6600    12.1830   103.2050 HW1           1 RES     
    7189 HW2         55.0920    11.7340   103.2980 HW2           1 RES     
    7190 OW          16.0420    40.5690    88.4770 OW            1 RES     
    7191 HW1         16.6800    40.0690    87.8930 HW1           1 RES     
    7192 HW2         16.3750    40.5590    89.4200 HW2           1 RES     
    7193 OW           6.3410    28.0710   109.3910 OW            1 RES     
    7194 HW1          7.3150    28.2170   109.2240 HW1           1 RES     
    7195 HW2          5.9470    27.5490   108.6350 HW2           1 RES     
    7196 OW          11.7580    24.4040   109.3180 OW            1 RES     
    7197 HW1         11.3560    25.2810   109.0560 HW1           1 RES     
    7198 HW2         12.7350    24.5230   109.4940 HW2           1 RES     
    7199 OW          36.8880    38.0530   106.5840 OW            1 RES     
    7200 HW1         37.8420    37.8890   106.8310 HW1           1 RES     
    7201 HW2         36.8490    38.5610   105.7220 HW2           1 RES     
    7202 OW           0.7570    42.0610    92.1090 OW            1 RES     
    7203 HW1          0.5550    41.1700    92.5140 HW1           1 RES     
    7204 HW2          0.1400    42.2250    91.3390 HW2           1 RES     
    7205 OW           1.2070    27.7660    98.1040 OW            1 RES     
    7206 HW1          0.8310    28.5120    98.6530 HW1           1 RES     
    7207 HW2          0.4590    27.2100    97.7380 HW2           1 RES     
    7208 OW          57.8620    46.8990   103.0830 OW            1 RES     
    7209 HW1         58.7800    46.5100   103.0110 HW1           1 RES     
    7210 HW2         57.1960    46.1640   103.2080 HW2           1 RES     
    7211 OW          18.3750    38.3610    91.3030 OW            1 RES     
    7212 HW1         18.3900    37.6930    90.5600 HW1           1 RES     
    7213 HW2         18.2670    39.2800    90.9240 HW2           1 RES     
    7214 OW          10.3700    35.9530   105.3060 OW            1 RES     
    7215 HW1         10.3880    35.0510   105.7370 HW1           1 RES     
    7216 HW2         10.1480    36.6460   105.9920 HW2           1 RES     
    7217 OW          41.9400    26.6720    91.7920 OW            1 RES     
    7218 HW1         42.3930    26.4240    92.6480 HW1           1 RES     
    7219 HW2         41.8620    25.8640    91.2090 HW2           1 RES     
    7220 OW           9.9450    37.1510   109.2630 OW            1 RES     
    7221 HW1         10.4890    37.2950   108.4380 HW1           1 RES     
    7222 HW2          8.9740    37.1280   109.0240 HW2           1 RES     
    7223 OW           0.5490    22.5590   106.7520 OW            1 RES     
    7224 HW1          0.2150    22.6600   107.6880 HW1           1 RES     
    7225 HW2          1.4480    22.1190   106.7640 HW2           1 RES     
    7226 OW          60.0370     5.5060    96.8020 OW            1 RES     
    7227 HW1         59.1400     5.0700    96.7440 HW1           1 RES     
    7228 HW2         59.9840     6.4310    96.4240 HW2           1 RES     
    7229 OW           6.9330    30.5290   111.2620 OW            1 RES     
    7230 HW1          6.9600    31.2670   110.5880 HW1           1 RES     
    7231 HW2          7.3580    29.7100   110.8780 HW2           1 RES     
    7232 OW          60.8650    27.2730    96.4730 OW            1 RES     
    7233 HW1         59.9970    27.1280    96.0000 HW1           1 RES     
    7234 HW2         61.1180    28.2390    96.4180 HW2           1 RES     
    7235 OW          20.1870    21.2750    87.6610 OW            1 RES     
    7236 HW1         20.2870    22.2450    87.4410 HW1           1 RES     
    7237 HW2         21.0070    20.7810    87.3700 HW2           1 RES     
    7238 OW          13.7630    23.9570   102.2780 OW            1 RES     
    7239 HW1         13.7110    24.9090   102.5790 HW1           1 RES     
    7240 HW2         14.5620    23.8370   101.6890 HW2           1 RES     
    7241 OW          52.5930    43.2730    90.3050 OW            1 RES     
    7242 HW1         53.5880    43.2420    90.3870 HW1           1 RES     
    7243 HW2         52.2800    42.5140    89.7340 HW2           1 RES     
    7244 OW          30.1760    19.7070   103.8920 OW            1 RES     
    7245 HW1         29.2830    19.2790   104.0250 HW1           1 RES     
    7246 HW2         30.0560    20.6150   103.4910 HW2           1 RES     
    7247 OW          58.4130    47.8980    96.8020 OW            1 RES     
    7248 HW1         58.5730    48.1950    97.7430 HW1           1 RES     
    7249 HW2         59.0100    48.4110    96.1840 HW2           1 RES     
    7250 OW           9.2460    22.6450   102.5260 OW            1 RES     
    7251 HW1          9.4180    23.6210   102.6520 HW1           1 RES     
    7252 HW2          8.2980    22.5070   102.2400 HW2           1 RES     
    7253 OW          22.9990    18.6970    98.8810 OW            1 RES     
    7254 HW1         22.2140    18.0800    98.8420 HW1           1 RES     
    7255 HW2         22.6830    19.6440    98.8170 HW2           1 RES     
    7256 OW          31.4200    18.9490   107.0280 OW            1 RES     
    7257 HW1         31.4830    19.8720   107.4050 HW1           1 RES     
    7258 HW2         32.3220    18.5170   107.0490 HW2           1 RES     
    7259 OW          14.8080     0.5680    91.9990 OW            1 RES     
    7260 HW1         15.4710     0.0770    92.5630 HW1           1 RES     
    7261 HW2         14.5820     0.0190    91.1940 HW2           1 RES     
    7262 OW          32.4080    47.8530   110.3560 OW            1 RES     
    7263 HW1         32.4830    48.8390   110.2160 HW1           1 RES     
    7264 HW2         31.5660    47.5190   109.9330 HW2           1 RES     
    7265 OW          11.0600    38.8450    92.7510 OW            1 RES     
    7266 HW1         11.7980    38.2280    93.0200 HW1           1 RES     
    7267 HW2         11.4320    39.5910    92.1980 HW2           1 RES     
    7268 OW          12.0930    18.5030    97.7710 OW            1 RES     
    7269 HW1         12.1550    18.1960    98.7200 HW1           1 RES     
    7270 HW2         11.1330    18.6450    97.5290 HW2           1 RES     
    7271 OW          35.6850    46.4640   109.0580 OW            1 RES     
    7272 HW1         35.0660    45.7010   108.8750 HW1           1 RES     
    7273 HW2         35.1660    47.2310   109.4360 HW2           1 RES     
    7274 OW          20.5470    13.4710   102.5230 OW            1 RES     
    7275 HW1         20.3580    14.3720   102.1340 HW1           1 RES     
    7276 HW2         21.3420    13.5290   103.1270 HW2           1 RES     
    7277 OW          39.6010    26.7240    98.9990 OW            1 RES     
    7278 HW1         40.4930    26.3390    99.2320 HW1           1 RES     
    7279 HW2         39.3320    27.3900    99.6960 HW2           1 RES     
    7280 OW          59.1930    12.4440   100.2040 OW            1 RES     
    7281 HW1         58.9640    11.6610   100.7810 HW1           1 RES     
    7282 HW2         59.9680    12.2110    99.6160 HW2           1 RES     
    7283 OW          25.0350    36.2600   106.6860 OW            1 RES     
    7284 HW1         25.9230    36.5740   107.0210 HW1           1 RES     
    7285 HW2         24.9380    35.2810   106.8650 HW2           1 RES     
    7286 OW          26.1120    36.8370   103.4850 OW            1 RES     
    7287 HW1         25.2760    36.5170   103.9310 HW1           1 RES     
    7288 HW2         26.8880    36.2890   103.7970 HW2           1 RES     
    7289 OW          38.8490     2.3160    90.5330 OW            1 RES     
    7290 HW1         37.9720     1.9310    90.2470 HW1           1 RES     
    7291 HW2         39.4610     1.5770    90.8170 HW2           1 RES     
    7292 OW          14.0570    36.2740   106.0480 OW            1 RES     
    7293 HW1         13.0730    36.3660   106.1960 HW1           1 RES     
    7294 HW2         14.2560    36.3430   105.0710 HW2           1 RES     
    7295 OW          56.9920    30.3130   110.6190 OW            1 RES     
    7296 HW1         57.7620    30.2770   111.2560 HW1           1 RES     
    7297 HW2         56.2470    30.8420   111.0250 HW2           1 RES     
    7298 OW          40.5500    34.1630    99.4890 OW            1 RES     
    7299 HW1         41.5340    34.1090    99.6540 HW1           1 RES     
    7300 HW2         40.2190    33.2820    99.1510 HW2           1 RES     
    7301 OW          35.2850    46.6300    99.9230 OW            1 RES     
    7302 HW1         36.0260    45.9600    99.9650 HW1           1 RES     
    7303 HW2         35.6670    47.5530    99.9740 HW2           1 RES     
    7304 OW          61.3410     2.4770   110.6640 OW            1 RES     
    7305 HW1         60.7770     3.0420   111.2640 HW1           1 RES     
    7306 HW2         60.7920     2.1590   109.8900 HW2           1 RES     
    7307 OW           2.0810    26.3850    87.3970 OW            1 RES     
    7308 HW1          1.9350    25.4840    86.9900 HW1           1 RES     
    7309 HW2          1.6030    27.0770    86.8550 HW2           1 RES     
    7310 OW          29.4680    32.3000    86.6030 OW            1 RES     
    7311 HW1         30.3380    32.5100    86.1580 HW1           1 RES     
    7312 HW2         29.4470    31.3320    86.8540 HW2           1 RES     
    7313 OW          33.3470    15.4740   106.6860 OW            1 RES     
    7314 HW1         33.6890    15.8500   107.5470 HW1           1 RES     
    7315 HW2         34.1140    15.1260   106.1460 HW2           1 RES     
    7316 OW          25.7580    35.0450   102.2580 OW            1 RES     
    7317 HW1         26.6180    34.5530   102.3940 HW1           1 RES     
    7318 HW2         25.0500    34.4040   101.9610 HW2           1 RES     
    7319 OW          10.0980     1.4000   110.9720 OW            1 RES     
    7320 HW1          9.2330     0.9000   110.9390 HW1           1 RES     
    7321 HW2         10.8490     0.7830   110.7380 HW2           1 RES     
    7322 OW          53.4250    34.4230   108.3000 OW            1 RES     
    7323 HW1         53.2040    33.7270   108.9830 HW1           1 RES     
    7324 HW2         52.7190    35.1310   108.3050 HW2           1 RES     
    7325 OW           0.7430     2.2360    88.9630 OW            1 RES     
    7326 HW1          0.7360     1.9290    88.0120 HW1           1 RES     
    7327 HW2          0.7760     3.2350    88.9910 HW2           1 RES     
    7328 OW          39.2550    34.3320   101.2890 OW            1 RES     
    7329 HW1         39.3320    34.0220   102.2360 HW1           1 RES     
    7330 HW2         38.2940    34.3230   101.0110 HW2           1 RES     
    7331 OW          16.6360     3.9950    92.1040 OW            1 RES     
    7332 HW1         15.8520     4.3300    92.6250 HW1           1 RES     
    7333 HW2         16.5300     4.2460    91.1410 HW2           1 RES     
    7334 OW          56.4260    31.4530    91.6620 OW            1 RES     
    7335 HW1         56.8280    30.6650    91.1960 HW1           1 RES     
    7336 HW2         55.4810    31.2450    91.9140 HW2           1 RES     
    7337 OW          26.9670    12.2650   102.1670 OW            1 RES     
    7338 HW1         26.7870    13.2210   101.9390 HW1           1 RES     
    7339 HW2         26.1060    11.7560   102.1810 HW2           1 RES     
    7340 OW          51.9160    22.1200   101.5950 OW            1 RES     
    7341 HW1         52.6000    21.4250   101.8120 HW1           1 RES     
    7342 HW2         52.0210    22.4070   100.6430 HW2           1 RES     
    7343 OW          27.9000    44.2180   109.0390 OW            1 RES     
    7344 HW1         27.3930    43.4810   108.5940 HW1           1 RES     
    7345 HW2         27.2580    44.8840   109.4180 HW2           1 RES     
    7346 OW          27.2540     5.7470    97.1100 OW            1 RES     
    7347 HW1         27.6880     5.9400    96.2300 HW1           1 RES     
    7348 HW2         26.9290     6.6010    97.5170 HW2           1 RES     
    7349 OW          56.5900    24.5210   102.4700 OW            1 RES     
    7350 HW1         55.8160    24.8070   103.0320 HW1           1 RES     
    7351 HW2         56.3170    24.5070   101.5080 HW2           1 RES     
    7352 OW          25.5260    43.4210   100.5330 OW            1 RES     
    7353 HW1         25.5900    42.9910    99.6330 HW1           1 RES     
    7354 HW2         26.2870    44.0590   100.6540 HW2           1 RES     
    7355 OW          13.4520    21.0270   108.1070 OW            1 RES     
    7356 HW1         13.7720    20.1420   108.4430 HW1           1 RES     
    7357 HW2         12.5140    21.1830   108.4190 HW2           1 RES     
    7358 OW          22.6490    43.1480   100.7810 OW            1 RES     
    7359 HW1         23.3550    43.5490   100.1990 HW1           1 RES     
    7360 HW2         22.5140    42.1890   100.5310 HW2           1 RES     
    7361 OW           9.8970    37.3720    96.4870 OW            1 RES     
    7362 HW1          9.4170    38.1600    96.1030 HW1           1 RES     
    7363 HW2          9.6370    36.5470    95.9860 HW2           1 RES     
    7364 OW          47.6310     6.5060    90.0840 OW            1 RES     
    7365 HW1         47.3230     5.7940    89.4550 HW1           1 RES     
    7366 HW2         46.9010     7.1790    90.2090 HW2           1 RES     
    7367 OW          28.0640    19.5960    86.9220 OW            1 RES     
    7368 HW1         29.0320    19.3850    86.7900 HW1           1 RES     
    7369 HW2         27.6700    18.9580    87.5840 HW2           1 RES     
    7370 OW          20.2450    27.5310    89.2370 OW            1 RES     
    7371 HW1         20.5620    27.3410    88.3090 HW1           1 RES     
    7372 HW2         20.1660    26.6730    89.7450 HW2           1 RES     
    7373 OW          54.9950    27.4990    99.2320 OW            1 RES     
    7374 HW1         54.0370    27.2970    99.4320 HW1           1 RES     
    7375 HW2         55.3320    28.1860    99.8760 HW2           1 RES     
    7376 OW          40.1870    46.3680    89.1710 OW            1 RES     
    7377 HW1         41.0210    45.9550    89.5340 HW1           1 RES     
    7378 HW2         40.1460    46.2250    88.1820 HW2           1 RES     
    7379 OW           6.5910     4.7150    99.6570 OW            1 RES     
    7380 HW1          7.2780     5.4280    99.7900 HW1           1 RES     
    7381 HW2          5.7050     5.1370    99.4630 HW2           1 RES     
    7382 OW           5.6610    24.5780    94.3700 OW            1 RES     
    7383 HW1          6.4260    24.0290    94.0360 HW1           1 RES     
    7384 HW2          5.6290    25.4450    93.8720 HW2           1 RES     
    7385 OW          23.4370    15.1160   101.6060 OW            1 RES     
    7386 HW1         22.8550    15.1300   102.4180 HW1           1 RES     
    7387 HW2         23.6250    14.1680   101.3460 HW2           1 RES     
    7388 OW          17.4010    43.1590   100.6990 OW            1 RES     
    7389 HW1         16.7660    43.9120   100.5300 HW1           1 RES     
    7390 HW2         18.3410    43.4840   100.5920 HW2           1 RES     
    7391 OW           1.6200    27.0020   103.0600 OW            1 RES     
    7392 HW1          1.6070    27.5020   102.1950 HW1           1 RES     
    7393 HW2          0.7780    26.4700   103.1520 HW2           1 RES     
    7394 OW          27.3810    43.3060   102.7350 OW            1 RES     
    7395 HW1         28.3760    43.3610   102.8110 HW1           1 RES     
    7396 HW2         26.9940    44.2280   102.7410 HW2           1 RES     
    7397 OW          55.1330    40.6350    99.2660 OW            1 RES     
    7398 HW1         54.2220    41.0350    99.1720 HW1           1 RES     
    7399 HW2         55.7100    40.9380    98.5070 HW2           1 RES     
    7400 OW          29.4320     6.3490    99.3790 OW            1 RES     
    7401 HW1         29.3110     5.7770    98.5690 HW1           1 RES     
    7402 HW2         29.3810     7.3130    99.1180 HW2           1 RES     
    7403 OW          56.6730    30.5950    96.9140 OW            1 RES     
    7404 HW1         57.5360    30.5440    96.4140 HW1           1 RES     
    7405 HW2         56.6690    31.4120    97.4910 HW2           1 RES     
    7406 OW          24.1270    18.6790   109.9680 OW            1 RES     
    7407 HW1         23.3890    19.3530   109.9590 HW1           1 RES     
    7408 HW2         25.0020    19.1430   110.1110 HW2           1 RES     
    7409 OW          16.1600    40.6140    91.6470 OW            1 RES     
    7410 HW1         15.2400    40.2230    91.6210 HW1           1 RES     
    7411 HW2         16.1120    41.5920    91.4440 HW2           1 RES     
    7412 OW          17.8170    48.4500   106.2680 OW            1 RES     
    7413 HW1         18.0840    47.9610   105.4380 HW1           1 RES     
    7414 HW2         16.8710    48.7610   106.1830 HW2           1 RES     
    7415 OW          49.0290    10.8590   108.4660 OW            1 RES     
    7416 HW1         49.9110    10.4160   108.6220 HW1           1 RES     
    7417 HW2         49.1610    11.8470   108.3840 HW2           1 RES     
    7418 OW          62.1640    17.0590   109.6080 OW            1 RES     
    7419 HW1         62.6310    17.7200   110.1940 HW1           1 RES     
    7420 HW2         61.3130    17.4590   109.2660 HW2           1 RES     
    7421 OW          44.8690    25.4100    91.9860 OW            1 RES     
    7422 HW1         45.6130    25.2220    91.3460 HW1           1 RES     
    7423 HW2         44.3780    26.2310    91.6960 HW2           1 RES     
    7424 OW          60.0020    26.7190    87.2930 OW            1 RES     
    7425 HW1         60.3950    26.6330    88.2080 HW1           1 RES     
    7426 HW2         60.5410    27.3700    86.7580 HW2           1 RES     
    7427 OW          47.6010    25.6280    98.4240 OW            1 RES     
    7428 HW1         47.5790    24.6930    98.0700 HW1           1 RES     
    7429 HW2         47.1570    25.6570    99.3190 HW2           1 RES     
    7430 OW          13.8940    39.5250    94.4270 OW            1 RES     
    7431 HW1         14.3300    40.4230    94.4000 HW1           1 RES     
    7432 HW2         12.9000    39.6340    94.3880 HW2           1 RES     
    7433 OW           1.4170    35.8460    96.9110 OW            1 RES     
    7434 HW1          1.8680    35.9900    97.7910 HW1           1 RES     
    7435 HW2          0.4410    36.0490    97.0000 HW2           1 RES     
    7436 OW          34.4580    47.6500   107.2000 OW            1 RES     
    7437 HW1         34.7800    48.5670   106.9670 HW1           1 RES     
    7438 HW2         33.7600    47.3640   106.5420 HW2           1 RES     
    7439 OW          22.5140    37.9860   104.8470 OW            1 RES     
    7440 HW1         23.2440    37.3050   104.7990 HW1           1 RES     
    7441 HW2         22.8650    38.8740   104.5480 HW2           1 RES     
    7442 OW          37.4550    39.5310    88.6220 OW            1 RES     
    7443 HW1         37.6610    39.2310    87.6910 HW1           1 RES     
    7444 HW2         38.2170    40.0760    88.9730 HW2           1 RES     
    7445 OW          42.2590    12.2630    93.9020 OW            1 RES     
    7446 HW1         43.2300    12.0530    93.8020 HW1           1 RES     
    7447 HW2         42.1400    13.2510    94.0010 HW2           1 RES     
    7448 OW           9.0140    35.2100   103.0030 OW            1 RES     
    7449 HW1          8.1550    35.6990   103.1500 HW1           1 RES     
    7450 HW2          9.7760    35.8570   103.0310 HW2           1 RES     
    7451 OW          45.0200    16.8610    87.3090 OW            1 RES     
    7452 HW1         45.9040    16.3960    87.3170 HW1           1 RES     
    7453 HW2         44.3950    16.3820    86.6920 HW2           1 RES     
    7454 OW          54.5890    43.2340   106.8010 OW            1 RES     
    7455 HW1         54.0310    43.8010   107.4050 HW1           1 RES     
    7456 HW2         55.4340    42.9760   107.2710 HW2           1 RES     
    7457 OW          54.2940    41.4470   109.4680 OW            1 RES     
    7458 HW1         53.3280    41.3410   109.2320 HW1           1 RES     
    7459 HW2         54.7560    40.5640   109.3870 HW2           1 RES     
    7460 OW          16.0400     7.4710    90.0090 OW            1 RES     
    7461 HW1         15.7890     6.5060    89.9500 HW1           1 RES     
    7462 HW2         15.3160     8.0290    89.6030 HW2           1 RES     
    7463 OW          45.3980    14.8490   100.8080 OW            1 RES     
    7464 HW1         46.0520    14.0970   100.7370 HW1           1 RES     
    7465 HW2         44.9220    14.9600    99.9350 HW2           1 RES     
    7466 OW          59.6430    20.8350   108.8210 OW            1 RES     
    7467 HW1         59.8400    21.7600   109.1440 HW1           1 RES     
    7468 HW2         60.4180    20.2380   109.0250 HW2           1 RES     
    7469 OW          23.5390    27.8470   102.4520 OW            1 RES     
    7470 HW1         23.4570    28.6380   101.8470 HW1           1 RES     
    7471 HW2         22.6640    27.6820   102.9070 HW2           1 RES     
    7472 OW          50.3180    22.8320    98.5300 OW            1 RES     
    7473 HW1         50.8530    22.7330    97.6920 HW1           1 RES     
    7474 HW2         50.5240    23.7130    98.9560 HW2           1 RES     
    7475 OW          62.5210    25.0500    95.8060 OW            1 RES     
    7476 HW1         62.6160    25.9780    96.1660 HW1           1 RES     
    7477 HW2         62.1030    24.4640    96.5000 HW2           1 RES     
    7478 OW          33.3890    44.6980    97.5460 OW            1 RES     
    7479 HW1         32.8120    43.8870    97.6360 HW1           1 RES     
    7480 HW2         34.0200    44.7470    98.3210 HW2           1 RES     
    7481 OW          53.3470    10.8080    89.3030 OW            1 RES     
    7482 HW1         53.7600    11.1400    90.1500 HW1           1 RES     
    7483 HW2         52.8620    11.5570    88.8520 HW2           1 RES     
    7484 OW          53.7720    31.2900   105.7450 OW            1 RES     
    7485 HW1         54.2180    31.9680   106.3280 HW1           1 RES     
    7486 HW2         53.3010    30.6170   106.3160 HW2           1 RES     
    7487 OW          17.2710    10.3820    98.3510 OW            1 RES     
    7488 HW1         17.1110     9.4340    98.0790 HW1           1 RES     
    7489 HW2         16.4030    10.8790    98.3550 HW2           1 RES     
    7490 OW           3.2490    27.2350    99.2510 OW            1 RES     
    7491 HW1          4.0450    27.4940    98.7050 HW1           1 RES     
    7492 HW2          2.8100    26.4350    98.8420 HW2           1 RES     
    7493 OW          47.4410    45.7120    90.9820 OW            1 RES     
    7494 HW1         47.7330    46.6570    90.8420 HW1           1 RES     
    7495 HW2         47.9250    45.3260    91.7670 HW2           1 RES     
    7496 OW          11.5010    39.1000   100.7350 OW            1 RES     
    7497 HW1         12.4230    38.9970   101.1080 HW1           1 RES     
    7498 HW2         10.9310    38.3370   101.0400 HW2           1 RES     
    7499 OW          17.8510    28.2890   105.3970 OW            1 RES     
    7500 HW1         17.0490    28.1000   104.8310 HW1           1 RES     
    7501 HW2         18.1920    29.2070   105.1970 HW2           1 RES     
    7502 OW          62.0160    27.7140    99.6500 OW            1 RES     
    7503 HW1         62.4030    28.6260    99.7810 HW1           1 RES     
    7504 HW2         61.0190    27.7620    99.7130 HW2           1 RES     
    7505 OW          35.5540    12.8650   107.0170 OW            1 RES     
    7506 HW1         35.5330    11.9140   106.7090 HW1           1 RES     
    7507 HW2         36.5030    13.1740   107.0810 HW2           1 RES     
    7508 OW          30.8470    31.2580   100.1040 OW            1 RES     
    7509 HW1         30.8040    30.2600   100.1220 HW1           1 RES     
    7510 HW2         31.8030    31.5500   100.0680 HW2           1 RES     
    7511 OW          41.4300     8.9600    87.6870 OW            1 RES     
    7512 HW1         41.3930     9.7040    88.3540 HW1           1 RES     
    7513 HW2         40.5110     8.5920    87.5460 HW2           1 RES     
    7514 OW          33.9030    40.5420   107.2120 OW            1 RES     
    7515 HW1         33.5750    40.5230   108.1560 HW1           1 RES     
    7516 HW2         34.5660    39.8060   107.0740 HW2           1 RES     
    7517 OW          38.4400    48.4440    89.2180 OW            1 RES     
    7518 HW1         38.3600    47.6060    89.7560 HW1           1 RES     
    7519 HW2         39.2910    48.4250    88.6920 HW2           1 RES     
    7520 OW          41.5410    32.3220   107.1130 OW            1 RES     
    7521 HW1         41.8190    32.7100   107.9920 HW1           1 RES     
    7522 HW2         41.4640    33.0530   106.4350 HW2           1 RES     
    7523 OW          53.4470     8.2630    91.4200 OW            1 RES     
    7524 HW1         52.5100     7.9220    91.4750 HW1           1 RES     
    7525 HW2         53.4450     9.2600    91.4940 HW2           1 RES     
    7526 OW          58.7920    19.4500    92.7630 OW            1 RES     
    7527 HW1         58.5850    19.6650    93.7170 HW1           1 RES     
    7528 HW2         59.7260    19.7380    92.5510 HW2           1 RES     
    7529 OW          31.9410    36.7320    96.4040 OW            1 RES     
    7530 HW1         32.4820    37.5700    96.4710 HW1           1 RES     
    7531 HW2         30.9720    36.9500    96.5220 HW2           1 RES     
    7532 OW          53.2310    37.8040   106.1330 OW            1 RES     
    7533 HW1         53.2530    37.0560   106.7950 HW1           1 RES     
    7534 HW2         53.5990    37.4870   105.2590 HW2           1 RES     
    7535 OW          19.0040    38.1100   102.0790 OW            1 RES     
    7536 HW1         19.7410    37.4900   102.3480 HW1           1 RES     
    7537 HW2         19.3910    38.9060   101.6130 HW2           1 RES     
    7538 OW          50.3480    36.6780   110.1590 OW            1 RES     
    7539 HW1         50.5230    37.2360   110.9700 HW1           1 RES     
    7540 HW2         51.0050    35.9240   110.1250 HW2           1 RES     
    7541 OW          40.7540    18.7640   106.6730 OW            1 RES     
    7542 HW1         40.8690    18.0300   106.0050 HW1           1 RES     
    7543 HW2         40.3470    18.3940   107.5090 HW2           1 RES     
    7544 OW          59.9010    35.7080   102.5210 OW            1 RES     
    7545 HW1         60.3330    36.6090   102.5300 HW1           1 RES     
    7546 HW2         60.6060    35.0000   102.5650 HW2           1 RES     
    7547 OW          16.2410    12.2430    86.3430 OW            1 RES     
    7548 HW1         16.9500    12.9240    86.1660 HW1           1 RES     
    7549 HW2         15.3930    12.7040    86.6050 HW2           1 RES     
    7550 OW          33.3540    19.6390   103.6180 OW            1 RES     
    7551 HW1         33.9170    20.4620   103.6790 HW1           1 RES     
    7552 HW2         32.3930    19.8800   103.7560 HW2           1 RES     
    7553 OW          23.3990    21.4560    95.6580 OW            1 RES     
    7554 HW1         23.4740    20.4730    95.8190 HW1           1 RES     
    7555 HW2         24.2960    21.8830    95.7760 HW2           1 RES     
    7556 OW          21.7410    48.0110    97.8740 OW            1 RES     
    7557 HW1         21.2440    47.1660    98.0680 HW1           1 RES     
    7558 HW2         21.0900    48.7500    97.7010 HW2           1 RES     
    7559 OW          42.8180    48.4920   109.4880 OW            1 RES     
    7560 HW1         42.8470    47.5860   109.9080 HW1           1 RES     
    7561 HW2         42.0620    48.5340   108.8350 HW2           1 RES     
    7562 OW          23.2030    37.4370    90.1810 OW            1 RES     
    7563 HW1         23.3220    38.4260    90.2610 HW1           1 RES     
    7564 HW2         22.8670    37.2150    89.2650 HW2           1 RES     
    7565 OW          16.5670    26.0500    86.7750 OW            1 RES     
    7566 HW1         17.1110    26.6200    86.1610 HW1           1 RES     
    7567 HW2         15.7080    25.8010    86.3270 HW2           1 RES     
    7568 OW          28.8560    14.3790   110.7640 OW            1 RES     
    7569 HW1         29.5110    15.0570   110.4320 HW1           1 RES     
    7570 HW2         28.4710    13.8780   109.9890 HW2           1 RES     
    7571 OW          32.8160     5.4810   102.6960 OW            1 RES     
    7572 HW1         33.8100     5.3780   102.6950 HW1           1 RES     
    7573 HW2         32.3910     4.6100   102.9450 HW2           1 RES     
    7574 OW          22.4100    38.2190    93.1070 OW            1 RES     
    7575 HW1         23.0720    37.9280    92.4180 HW1           1 RES     
    7576 HW2         21.5850    38.5600    92.6560 HW2           1 RES     
    7577 OW          43.8010    24.2770   100.6540 OW            1 RES     
    7578 HW1         42.8380    24.0790   100.8330 HW1           1 RES     
    7579 HW2         43.9390    25.2670   100.6300 HW2           1 RES     
    7580 OW          22.6530    42.5860   106.1960 OW            1 RES     
    7581 HW1         23.2970    43.0780   105.6110 HW1           1 RES     
    7582 HW2         22.1430    43.2410   106.7550 HW2           1 RES     
    7583 OW          59.3960    16.0570    95.1570 OW            1 RES     
    7584 HW1         58.6220    16.6550    95.3610 HW1           1 RES     
    7585 HW2         59.1570    15.1130    95.3830 HW2           1 RES     
    7586 OW          39.4830    15.1300   106.5780 OW            1 RES     
    7587 HW1         39.2530    15.2080   105.6090 HW1           1 RES     
    7588 HW2         39.6680    14.1730   106.8010 HW2           1 RES     
    7589 OW          42.3260    30.2450   102.7200 OW            1 RES     
    7590 HW1         42.7920    29.5260   103.2360 HW1           1 RES     
    7591 HW2         42.9690    30.9850   102.5240 HW2           1 RES     
    7592 OW          43.8850    13.8750    91.4420 OW            1 RES     
    7593 HW1         44.8140    14.0840    91.1380 HW1           1 RES     
    7594 HW2         43.3410    13.5640    90.6630 HW2           1 RES     
    7595 OW          40.1090    23.9110    87.2730 OW            1 RES     
    7596 HW1         40.2570    24.5660    86.5330 HW1           1 RES     
    7597 HW2         40.1630    22.9800    86.9110 HW2           1 RES     
    7598 OW          15.3160    45.5810   108.5890 OW            1 RES     
    7599 HW1         14.8780    46.3320   108.0970 HW1           1 RES     
    7600 HW2         14.8640    45.4510   109.4720 HW2           1 RES     
    7601 OW           7.3790    33.6290   101.6270 OW            1 RES     
    7602 HW1          8.0540    34.1960   101.1560 HW1           1 RES     
    7603 HW2          7.7380    33.3530   102.5180 HW2           1 RES     
    7604 OW          42.8320    12.0860    99.6160 OW            1 RES     
    7605 HW1         43.4870    11.3330    99.5620 HW1           1 RES     
    7606 HW2         43.3240    12.9570    99.6220 HW2           1 RES     
    7607 OW           0.8710    20.8230    90.7760 OW            1 RES     
    7608 HW1          0.0000    20.4500    90.4600 HW1           1 RES     
    7609 HW2          1.3650    21.2220    90.0030 HW2           1 RES     
    7610 OW          20.5330    32.8770    95.6640 OW            1 RES     
    7611 HW1         20.3210    31.9020    95.7080 HW1           1 RES     
    7612 HW2         21.4990    32.9990    95.4330 HW2           1 RES     
    7613 OW          30.6780     5.8710   107.9070 OW            1 RES     
    7614 HW1         31.2320     6.3690   108.5730 HW1           1 RES     
    7615 HW2         31.1620     5.8320   107.0330 HW2           1 RES     
    7616 OW          24.3610     0.1720   104.5250 OW            1 RES     
    7617 HW1         23.3880     0.0020   104.3780 HW1           1 RES     
    7618 HW2         24.5860     0.0140   105.4870 HW2           1 RES     
    7619 OW           7.1670    22.9820    98.4850 OW            1 RES     
    7620 HW1          7.8110    23.6820    98.1780 HW1           1 RES     
    7621 HW2          7.4240    22.0980    98.0930 HW2           1 RES     
    7622 OW           6.1910    45.5630   105.4760 OW            1 RES     
    7623 HW1          5.9610    45.8140   106.4160 HW1           1 RES     
    7624 HW2          6.2310    44.5670   105.3960 HW2           1 RES     
    7625 OW          45.7760    37.2130   106.7720 OW            1 RES     
    7626 HW1         46.3980    36.7700   106.1260 HW1           1 RES     
    7627 HW2         46.1680    37.1750   107.6910 HW2           1 RES     
    7628 OW          51.3300    32.1880    91.0720 OW            1 RES     
    7629 HW1         52.2160    32.0320    90.6360 HW1           1 RES     
    7630 HW2         50.7790    31.3550    91.0160 HW2           1 RES     
    7631 OW          57.2850    15.1130    88.7080 OW            1 RES     
    7632 HW1         56.4720    14.5630    88.5180 HW1           1 RES     
    7633 HW2         57.1650    15.5960    89.5760 HW2           1 RES     
    7634 OW          14.1930    17.0460   101.3710 OW            1 RES     
    7635 HW1         14.1030    16.0620   101.5180 HW1           1 RES     
    7636 HW2         14.9990    17.3840   101.8570 HW2           1 RES     
    7637 OW          35.8980    22.2510   109.4150 OW            1 RES     
    7638 HW1         35.4230    23.1020   109.1920 HW1           1 RES     
    7639 HW2         36.8840    22.4180   109.4480 HW2           1 RES     
    7640 OW          32.8320    25.5030   103.2210 OW            1 RES     
    7641 HW1         32.1410    25.0590   103.7900 HW1           1 RES     
    7642 HW2         32.4500    26.3370   102.8210 HW2           1 RES     
    7643 OW          28.8030     7.5950    91.6200 OW            1 RES     
    7644 HW1         28.7170     8.1870    92.4210 HW1           1 RES     
    7645 HW2         29.5940     6.9930    91.7330 HW2           1 RES     
    7646 OW          10.9270    26.4650   102.8290 OW            1 RES     
    7647 HW1         10.0450    26.6880   102.4160 HW1           1 RES     
    7648 HW2         11.1020    27.0820   103.5970 HW2           1 RES     
    7649 OW          16.2800    36.2400    87.1370 OW            1 RES     
    7650 HW1         17.2780    36.2120    87.1860 HW1           1 RES     
    7651 HW2         15.9120    35.3230    87.2930 HW2           1 RES     
    7652 OW           6.2330    28.0400    98.7020 OW            1 RES     
    7653 HW1          5.8090    28.8920    98.3960 HW1           1 RES     
    7654 HW2          7.2250    28.1600    98.7510 HW2           1 RES     
    7655 OW          20.7600    36.8070    91.6000 OW            1 RES     
    7656 HW1         21.6730    36.4230    91.4670 HW1           1 RES     
    7657 HW2         20.3300    36.3780    92.3950 HW2           1 RES     
    7658 OW          39.7410     8.2590    92.5530 OW            1 RES     
    7659 HW1         40.5640     8.6830    92.1760 HW1           1 RES     
    7660 HW2         39.0940     8.9710    92.8270 HW2           1 RES     
    7661 OW          34.9240    33.6060    92.5660 OW            1 RES     
    7662 HW1         34.2250    34.3200    92.5360 HW1           1 RES     
    7663 HW2         34.4840    32.7110    92.6380 HW2           1 RES     
    7664 OW          25.7090    32.7490   108.3960 OW            1 RES     
    7665 HW1         25.7440    33.7010   108.7000 HW1           1 RES     
    7666 HW2         25.0240    32.2540   108.9310 HW2           1 RES     
    7667 OW          16.3700    37.9840    95.7620 OW            1 RES     
    7668 HW1         16.7000    37.0710    96.0000 HW1           1 RES     
    7669 HW2         17.0580    38.4530    95.2080 HW2           1 RES     
    7670 OW          45.1310     4.8830   103.6650 OW            1 RES     
    7671 HW1         45.0720     4.3170   102.8430 HW1           1 RES     
    7672 HW2         46.0280     4.7600   104.0910 HW2           1 RES     
    7673 OW          31.6460     7.8920    98.3180 OW            1 RES     
    7674 HW1         32.6140     7.9260    98.5640 HW1           1 RES     
    7675 HW2         31.5470     8.0180    97.3300 HW2           1 RES     
    7676 OW          25.8590    29.6760   103.3910 OW            1 RES     
    7677 HW1         26.7270    29.3280   103.7440 HW1           1 RES     
    7678 HW2         25.1670    28.9550   103.4350 HW2           1 RES     
    7679 OW          51.4630    48.5910    88.2330 OW            1 RES     
    7680 HW1         51.6160    48.6050    87.2450 HW1           1 RES     
    7681 HW2         52.3420    48.5370    88.7060 HW2           1 RES     
    7682 OW          38.3970    25.8150    94.5970 OW            1 RES     
    7683 HW1         38.5240    26.7730    94.3420 HW1           1 RES     
    7684 HW2         37.4300    25.5730    94.5140 HW2           1 RES     
    7685 OW          13.5270    12.5170    93.3580 OW            1 RES     
    7686 HW1         13.8240    11.8020    92.7270 HW1           1 RES     
    7687 HW2         14.0160    13.3660    93.1550 HW2           1 RES     
    7688 OW          11.7740    30.6340    88.6770 OW            1 RES     
    7689 HW1         11.2600    29.8930    89.1090 HW1           1 RES     
    7690 HW2         11.2700    31.4920    88.7760 HW2           1 RES     
    7691 OW           3.4970     6.2000   104.7180 OW            1 RES     
    7692 HW1          4.4760     6.3640   104.8390 HW1           1 RES     
    7693 HW2          3.3370     5.2220   104.5830 HW2           1 RES     
    7694 OW          37.8640    25.3590   100.8950 OW            1 RES     
    7695 HW1         37.5730    26.3150   100.9030 HW1           1 RES     
    7696 HW2         38.8230    25.3050   100.6150 HW2           1 RES     
    7697 OW          37.0980    12.8300    88.8940 OW            1 RES     
    7698 HW1         36.5130    12.0430    88.7000 HW1           1 RES     
    7699 HW2         38.0550    12.5380    88.9180 HW2           1 RES     
    7700 OW          19.8560    39.9640    88.4720 OW            1 RES     
    7701 HW1         20.1060    39.0290    88.2220 HW1           1 RES     
    7702 HW2         18.8610    40.0610    88.4480 HW2           1 RES     
    7703 OW          45.7300    44.6400    91.8630 OW            1 RES     
    7704 HW1         44.7870    44.4020    91.6350 HW1           1 RES     
    7705 HW2         45.7420    45.2100    92.6850 HW2           1 RES     
    7706 OW          46.9150     2.0680    88.6390 OW            1 RES     
    7707 HW1         45.9170     2.0860    88.6810 HW1           1 RES     
    7708 HW2         47.2320     1.1190    88.6330 HW2           1 RES     
    7709 OW          49.4180     1.7050    93.1340 OW            1 RES     
    7710 HW1         48.5050     1.5720    93.5190 HW1           1 RES     
    7711 HW2         50.0290     2.0650    93.8390 HW2           1 RES     
    7712 OW          42.4180    15.8270    97.2480 OW            1 RES     
    7713 HW1         42.0480    14.9530    97.5610 HW1           1 RES     
    7714 HW2         42.2860    15.9100    96.2590 HW2           1 RES     
    7715 OW          24.7290    15.8270    93.2630 OW            1 RES     
    7716 HW1         25.1380    15.8050    92.3520 HW1           1 RES     
    7717 HW2         23.7510    16.0240    93.1850 HW2           1 RES     
    7718 OW          10.0720    18.1440   110.2560 OW            1 RES     
    7719 HW1          9.4330    18.7380   110.7440 HW1           1 RES     
    7720 HW2         10.4320    18.6250   109.4570 HW2           1 RES     
    7721 OW          42.0560     3.6740    98.0680 OW            1 RES     
    7722 HW1         41.1120     3.4360    97.8450 HW1           1 RES     
    7723 HW2         42.6470     2.8820    97.9110 HW2           1 RES     
    7724 OW          22.8110    12.0480    87.1160 OW            1 RES     
    7725 HW1         23.2010    11.1310    87.1880 HW1           1 RES     
    7726 HW2         21.8230    11.9810    86.9760 HW2           1 RES     
    7727 OW          53.4210    15.2630   106.7190 OW            1 RES     
    7728 HW1         54.3090    14.9330   107.0370 HW1           1 RES     
    7729 HW2         53.5250    16.1780   106.3270 HW2           1 RES     
    7730 OW          27.7680    16.2740    92.7400 OW            1 RES     
    7731 HW1         28.5960    16.8320    92.7760 HW1           1 RES     
    7732 HW2         26.9800    16.8290    93.0050 HW2           1 RES     
    7733 OW          61.7180    44.0140    97.1680 OW            1 RES     
    7734 HW1         61.1090    44.7620    97.4290 HW1           1 RES     
    7735 HW2         62.6290    44.3770    96.9740 HW2           1 RES     
    7736 OW          17.3740    40.9850   105.0500 OW            1 RES     
    7737 HW1         18.0930    41.1020   105.7340 HW1           1 RES     
    7738 HW2         17.5650    40.1710   104.5000 HW2           1 RES     
    7739 OW          34.3480    29.4020    87.2470 OW            1 RES     
    7740 HW1         33.6910    30.1000    87.5310 HW1           1 RES     
    7741 HW2         34.6230    28.8590    88.0400 HW2           1 RES     
    7742 OW           2.3090     9.4810   102.9580 OW            1 RES     
    7743 HW1          1.4780     8.9700   102.7420 HW1           1 RES     
    7744 HW2          2.0640    10.3790   103.3240 HW2           1 RES     
    7745 OW          30.1570     0.4410    89.3100 OW            1 RES     
    7746 HW1         29.8450     1.2780    89.7580 HW1           1 RES     
    7747 HW2         30.8600     0.0030    89.8700 HW2           1 RES     
    7748 OW          50.4300     9.1390   100.2340 OW            1 RES     
    7749 HW1         49.4970     8.7820   100.2120 HW1           1 RES     
    7750 HW2         51.0790     8.3780   100.2310 HW2           1 RES     
    7751 OW          28.0370    21.4310    88.1360 OW            1 RES     
    7752 HW1         27.0390    21.4850    88.1700 HW1           1 RES     
    7753 HW2         28.4200    22.3540    88.1070 HW2           1 RES     
    7754 OW          60.4490    16.2100    99.8790 OW            1 RES     
    7755 HW1         61.3110    16.5370    99.4940 HW1           1 RES     
    7756 HW2         60.4540    16.3430   100.8700 HW2           1 RES     
    7757 OW          11.3500    19.6720   107.1210 OW            1 RES     
    7758 HW1         12.3160    19.5250   106.9140 HW1           1 RES     
    7759 HW2         10.8670    19.9400   106.2870 HW2           1 RES     
    7760 OW           9.5140    27.9880    99.0950 OW            1 RES     
    7761 HW1          9.3130    27.0580    99.4000 HW1           1 RES     
    7762 HW2         10.4900    28.0690    98.8910 HW2           1 RES     
    7763 OW          10.8490    24.2450    95.7120 OW            1 RES     
    7764 HW1         11.3910    24.5380    94.9250 HW1           1 RES     
    7765 HW2         11.1100    24.7800    96.5150 HW2           1 RES     
    7766 OW          41.4090    29.6410   105.6120 OW            1 RES     
    7767 HW1         42.3930    29.8180   105.6040 HW1           1 RES     
    7768 HW2         40.9140    30.5030   105.5010 HW2           1 RES     
    7769 OW          45.1570    16.2230   107.6640 OW            1 RES     
    7770 HW1         44.7770    17.0120   108.1460 HW1           1 RES     
    7771 HW2         46.1390    16.1620   107.8460 HW2           1 RES     
    7772 OW          32.7940    13.8650    89.4450 OW            1 RES     
    7773 HW1         31.9150    14.1770    89.0850 HW1           1 RES     
    7774 HW2         32.6510    13.0730    90.0380 HW2           1 RES     
    7775 OW          15.6300    10.0300    93.5420 OW            1 RES     
    7776 HW1         14.8740     9.3790    93.5980 HW1           1 RES     
    7777 HW2         16.4990     9.5340    93.5470 HW2           1 RES     
    7778 OW           5.4920    18.7590    94.6240 OW            1 RES     
    7779 HW1          6.4290    19.0790    94.7630 HW1           1 RES     
    7780 HW2          5.4490    17.7730    94.7850 HW2           1 RES     
    7781 OW          47.5640    43.6880    94.4040 OW            1 RES     
    7782 HW1         47.5870    42.7520    94.0540 HW1           1 RES     
    7783 HW2         47.2300    43.6840    95.3470 HW2           1 RES     
    7784 OW          60.6480    36.1090    96.0080 OW            1 RES     
    7785 HW1         61.3390    35.3900    95.9430 HW1           1 RES     
    7786 HW2         59.7390    35.6950    96.0630 HW2           1 RES     
    7787 OW          15.1450     6.7350    97.8670 OW            1 RES     
    7788 HW1         15.7780     7.0400    97.1560 HW1           1 RES     
    7789 HW2         14.5100     6.0640    97.4830 HW2           1 RES     
    7790 OW          34.7140     0.1990    92.5340 OW            1 RES     
    7791 HW1         34.0880     0.7390    91.9720 HW1           1 RES     
    7792 HW2         35.6480     0.5340    92.4100 HW2           1 RES     
    7793 OW          32.8250    13.7380   107.9390 OW            1 RES     
    7794 HW1         32.5480    13.2770   107.0970 HW1           1 RES     
    7795 HW2         33.4380    13.1430   108.4600 HW2           1 RES     
    7796 OW          28.9630    35.4220   100.5920 OW            1 RES     
    7797 HW1         29.2760    36.2840   100.9890 HW1           1 RES     
    7798 HW2         29.6540    34.7150   100.7410 HW2           1 RES     
    7799 OW          53.1270    29.9190   100.6970 OW            1 RES     
    7800 HW1         54.0860    30.1630   100.8360 HW1           1 RES     
    7801 HW2         52.9990    28.9450   100.8870 HW2           1 RES     
    7802 OW          27.7490    10.4440    99.1670 OW            1 RES     
    7803 HW1         26.8720     9.9840    99.0330 HW1           1 RES     
    7804 HW2         27.6480    11.1600    99.8580 HW2           1 RES     
    7805 OW          48.9030    48.3570    90.0770 OW            1 RES     
    7806 HW1         49.8480    48.5680    89.8310 HW1           1 RES     
    7807 HW2         48.6650    48.8300    90.9250 HW2           1 RES     
    7808 OW          24.5880    32.1060    92.8300 OW            1 RES     
    7809 HW1         24.2980    31.7230    93.7060 HW1           1 RES     
    7810 HW2         23.8680    32.7030    92.4730 HW2           1 RES     
    7811 OW          29.7580    27.4520   109.9400 OW            1 RES     
    7812 HW1         30.3660    26.6670   109.8260 HW1           1 RES     
    7813 HW2         30.3020    28.2910   109.9850 HW2           1 RES     
    7814 OW          29.0050    45.7550   102.7730 OW            1 RES     
    7815 HW1         28.9500    45.5810   103.7550 HW1           1 RES     
    7816 HW2         28.4030    46.5180   102.5340 HW2           1 RES     
    7817 OW          15.9110    35.0070    91.0700 OW            1 RES     
    7818 HW1         15.6930    34.4150    91.8450 HW1           1 RES     
    7819 HW2         15.1320    35.0350    90.4420 HW2           1 RES     
    7820 OW          36.6350     7.2440   106.1330 OW            1 RES     
    7821 HW1         35.7460     7.1160   105.6950 HW1           1 RES     
    7822 HW2         37.3090     6.6450   105.7010 HW2           1 RES     
    7823 OW          30.4860    43.9590   110.1920 OW            1 RES     
    7824 HW1         29.6560    43.4090   110.2710 HW1           1 RES     
    7825 HW2         30.2400    44.9120   110.0120 HW2           1 RES     
    7826 OW          28.4370    37.7430   110.4610 OW            1 RES     
    7827 HW1         27.5710    38.1890   110.2370 HW1           1 RES     
    7828 HW2         28.2570    36.8310   110.8300 HW2           1 RES     
    7829 OW          51.2940    35.5840    87.6830 OW            1 RES     
    7830 HW1         52.1020    35.0060    87.5780 HW1           1 RES     
    7831 HW2         51.3020    36.0080    88.5900 HW2           1 RES     
    7832 OW          39.3320    40.5250   110.2590 OW            1 RES     
    7833 HW1         38.3870    40.5230   109.9320 HW1           1 RES     
    7834 HW2         39.6040    39.5930   110.4980 HW2           1 RES     
    7835 OW          35.7940    21.2250   106.4280 OW            1 RES     
    7836 HW1         36.2480    21.7070   105.6790 HW1           1 RES     
    7837 HW2         36.3480    21.2980   107.2570 HW2           1 RES     
    7838 OW          42.2670    16.7070    88.9520 OW            1 RES     
    7839 HW1         42.8120    15.8690    88.9250 HW1           1 RES     
    7840 HW2         41.9000    16.8960    88.0410 HW2           1 RES     
    7841 OW          59.7580    32.5480    88.4780 OW            1 RES     
    7842 HW1         59.8510    32.9920    89.3680 HW1           1 RES     
    7843 HW2         60.6050    32.6600    87.9590 HW2           1 RES     
    7844 OW          57.2600    41.6730   110.2390 OW            1 RES     
    7845 HW1         58.1350    41.4620   110.6740 HW1           1 RES     
    7846 HW2         56.5120    41.3310   110.8070 HW2           1 RES     
    7847 OW          35.5430    29.7280   100.7940 OW            1 RES     
    7848 HW1         36.2150    30.0550   101.4580 HW1           1 RES     
    7849 HW2         35.1990    28.8340   101.0790 HW2           1 RES     
    7850 OW          19.1390    36.1700   106.5540 OW            1 RES     
    7851 HW1         20.0580    36.5390   106.6870 HW1           1 RES     
    7852 HW2         19.1970    35.1930   106.3480 HW2           1 RES     
    7853 OW          42.2960    11.8340   110.5100 OW            1 RES     
    7854 HW1         42.1490    12.8220   110.5460 HW1           1 RES     
    7855 HW2         43.2770    11.6430   110.4780 HW2           1 RES     
    7856 OW          35.2060    26.6770   104.9320 OW            1 RES     
    7857 HW1         34.9520    25.9580   104.2860 HW1           1 RES     
    7858 HW2         34.7780    27.5380   104.6580 HW2           1 RES     
    7859 OW          41.9460     9.7860   100.3210 OW            1 RES     
    7860 HW1         41.5040     8.8900   100.2910 HW1           1 RES     
    7861 HW2         42.4680     9.8720   101.1700 HW2           1 RES     
    7862 OW           1.0130     6.7990   102.4160 OW            1 RES     
    7863 HW1          0.1160     7.2280   102.3120 HW1           1 RES     
    7864 HW2          0.9080     5.8040   102.4270 HW2           1 RES     
    7865 OW          21.1790    45.9160    94.4590 OW            1 RES     
    7866 HW1         22.1470    45.9720    94.7020 HW1           1 RES     
    7867 HW2         20.8470    44.9870    94.6220 HW2           1 RES     
    7868 OW          14.3780    42.7410   103.5910 OW            1 RES     
    7869 HW1         13.7800    43.4110   104.0280 HW1           1 RES     
    7870 HW2         14.7060    42.0890   104.2750 HW2           1 RES     
    7871 OW          45.4030    29.1700    92.2420 OW            1 RES     
    7872 HW1         45.5040    28.6500    91.3940 HW1           1 RES     
    7873 HW2         45.0460    28.5710    92.9600 HW2           1 RES     
    7874 OW          50.8850    19.6210   102.8690 OW            1 RES     
    7875 HW1         49.9970    19.1860   103.0110 HW1           1 RES     
    7876 HW2         51.6080    18.9320   102.9290 HW2           1 RES     
    7877 OW           6.9990    39.5460   110.8540 OW            1 RES     
    7878 HW1          6.5070    38.7780   111.2620 HW1           1 RES     
    7879 HW2          6.9170    39.5040   109.8580 HW2           1 RES     
    7880 OW          57.6820    18.8430    97.2620 OW            1 RES     
    7881 HW1         57.1680    18.8840    98.1190 HW1           1 RES     
    7882 HW2         57.9110    17.8910    97.0560 HW2           1 RES     
    7883 OW          58.6380     0.5230   108.4050 OW            1 RES     
    7884 HW1         59.4870     0.2820   107.9350 HW1           1 RES     
    7885 HW2         58.7720     1.3690   108.9220 HW2           1 RES     
    7886 OW          43.6510    35.9410    96.3200 OW            1 RES     
    7887 HW1         43.5530    35.2570    97.0410 HW1           1 RES     
    7888 HW2         44.5840    35.9170    95.9610 HW2           1 RES     
    7889 OW          50.5360    18.7860    88.1180 OW            1 RES     
    7890 HW1         50.8920    17.8560    88.2030 HW1           1 RES     
    7891 HW2         49.5730    18.7510    87.8490 HW2           1 RES     
    7892 OW          61.9650     1.8130    89.1730 OW            1 RES     
    7893 HW1         61.7970     2.0980    90.1160 HW1           1 RES     
    7894 HW2         62.5060     0.9710    89.1700 HW2           1 RES     
    7895 OW          25.6440    45.3740    91.0040 OW            1 RES     
    7896 HW1         25.4980    44.5970    91.6150 HW1           1 RES     
    7897 HW2         24.8530    45.9840    91.0450 HW2           1 RES     
    7898 OW          36.4470    44.4850   110.9510 OW            1 RES     
    7899 HW1         35.5690    44.0100   110.8920 HW1           1 RES     
    7900 HW2         36.2900    45.4540   111.1400 HW2           1 RES     
    7901 OW          36.9530    19.3590   106.2960 OW            1 RES     
    7902 HW1         37.1470    18.5650   106.8720 HW1           1 RES     
    7903 HW2         36.1710    19.1590   105.7050 HW2           1 RES     
    7904 OW          47.5400    45.7910    95.9320 OW            1 RES     
    7905 HW1         48.1720    46.5530    95.7920 HW1           1 RES     
    7906 HW2         46.6370    46.1460    96.1750 HW2           1 RES     
    7907 OW          25.4020    17.9250    95.2830 OW            1 RES     
    7908 HW1         24.9870    18.2860    96.1180 HW1           1 RES     
    7909 HW2         25.0350    17.0130    95.0950 HW2           1 RES     
    7910 OW          15.5930    27.4270    88.1870 OW            1 RES     
    7911 HW1         15.3040    26.5880    88.6480 HW1           1 RES     
    7912 HW2         14.9580    27.6360    87.4440 HW2           1 RES     
    7913 OW          58.7600    18.9280   103.3260 OW            1 RES     
    7914 HW1         59.5770    19.4610   103.5460 HW1           1 RES     
    7915 HW2         59.0260    18.0920   102.8460 HW2           1 RES     
    7916 OW          22.8000    11.2510    89.8410 OW            1 RES     
    7917 HW1         21.9590    10.7980    89.5460 HW1           1 RES     
    7918 HW2         22.6520    12.2400    89.8740 HW2           1 RES     
    7919 OW          25.0820    48.7980   109.1790 OW            1 RES     
    7920 HW1         25.3860    47.9360   108.7760 HW1           1 RES     
    7921 HW2         24.0830    48.8420   109.1590 HW2           1 RES     
    7922 OW          39.5730    20.6970   109.0640 OW            1 RES     
    7923 HW1         40.4410    21.1920   109.0560 HW1           1 RES     
    7924 HW2         38.8400    21.3130   109.3560 HW2           1 RES     
    7925 OW          58.2920    17.3140   110.7420 OW            1 RES     
    7926 HW1         57.7450    16.6570   111.2610 HW1           1 RES     
    7927 HW2         57.8620    17.4790   109.8540 HW2           1 RES     
    7928 OW          23.8680    21.7310    89.3400 OW            1 RES     
    7929 HW1         24.5220    21.0400    89.0320 HW1           1 RES     
    7930 HW2         22.9810    21.3000    89.5070 HW2           1 RES     
    7931 OW          45.0810    42.2270    96.5920 OW            1 RES     
    7932 HW1         45.3150    42.6520    95.7180 HW1           1 RES     
    7933 HW2         45.6800    41.4410    96.7520 HW2           1 RES     
    7934 OW          24.8190    13.0510    87.0940 OW            1 RES     
    7935 HW1         25.5320    13.0050    86.3960 HW1           1 RES     
    7936 HW2         24.4540    13.9810    87.1380 HW2           1 RES     
    7937 OW          59.3670    41.1920    88.8330 OW            1 RES     
    7938 HW1         58.3680    41.2020    88.8340 HW1           1 RES     
    7939 HW2         59.7120    42.1310    88.8380 HW2           1 RES     
    7940 OW          55.0650    13.2040   105.8770 OW            1 RES     
    7941 HW1         54.4660    12.5240   105.4540 HW1           1 RES     
    7942 HW2         55.9640    13.1750   105.4390 HW2           1 RES     
    7943 OW           8.3020     1.9360    98.4780 OW            1 RES     
    7944 HW1          7.4570     1.9040    99.0120 HW1           1 RES     
    7945 HW2          8.4770     2.8770    98.1870 HW2           1 RES     
    7946 OW          19.6510    40.9550    98.0170 OW            1 RES     
    7947 HW1         19.6880    40.2580    97.3020 HW1           1 RES     
    7948 HW2         19.9640    40.5630    98.8820 HW2           1 RES     
    7949 OW          23.3840    27.3820    87.0820 OW            1 RES     
    7950 HW1         23.4690    28.1190    86.4110 HW1           1 RES     
    7951 HW2         22.6930    27.6270    87.7620 HW2           1 RES     
    7952 OW          36.0070     6.6930    95.1930 OW            1 RES     
    7953 HW1         36.1300     7.6820    95.2650 HW1           1 RES     
    7954 HW2         35.0330     6.4720    95.2460 HW2           1 RES     
    7955 OW          33.6540    12.3640    95.9720 OW            1 RES     
    7956 HW1         33.7870    11.7800    96.7720 HW1           1 RES     
    7957 HW2         33.6250    13.3220    96.2600 HW2           1 RES     
    7958 OW          22.2090     6.6850   105.9390 OW            1 RES     
    7959 HW1         21.9630     6.3930   105.0150 HW1           1 RES     
    7960 HW2         21.4940     7.2820   106.3030 HW2           1 RES     
    7961 OW          44.7190    31.4920    91.6520 OW            1 RES     
    7962 HW1         44.5050    31.9730    90.8030 HW1           1 RES     
    7963 HW2         45.7040    31.3210    91.7000 HW2           1 RES     
    7964 OW          56.8740    28.8730    89.3610 OW            1 RES     
    7965 HW1         56.4500    27.9980    89.1320 HW1           1 RES     
    7966 HW2         56.1730    29.5860    89.3910 HW2           1 RES     
    7967 OW          41.2740    40.0370   104.3010 OW            1 RES     
    7968 HW1         40.3920    40.5070   104.3160 HW1           1 RES     
    7969 HW2         41.1720    39.1500   103.8500 HW2           1 RES     
    7970 OW          15.6800     7.9660   102.2560 OW            1 RES     
    7971 HW1         15.0780     7.2990   101.8190 HW1           1 RES     
    7972 HW2         15.1420     8.7520   102.5610 HW2           1 RES     
    7973 OW          27.8290    39.3030    96.2890 OW            1 RES     
    7974 HW1         27.6910    39.2340    95.3020 HW1           1 RES     
    7975 HW2         27.5640    40.2160    96.6000 HW2           1 RES     
    7976 OW          32.0140    47.0740    98.8980 OW            1 RES     
    7977 HW1         31.6920    47.7380    99.5730 HW1           1 RES     
    7978 HW2         32.1190    47.5240    98.0110 HW2           1 RES     
    7979 OW          20.5680    14.0670    95.1750 OW            1 RES     
    7980 HW1         20.6670    14.4880    96.0760 HW1           1 RES     
    7981 HW2         20.5290    13.0720    95.2730 HW2           1 RES     
    7982 OW          20.2440    42.7930    92.7960 OW            1 RES     
    7983 HW1         19.9300    41.9750    92.3150 HW1           1 RES     
    7984 HW2         19.5730    43.0490    93.4920 HW2           1 RES     
    7985 OW          50.9770    10.0140    88.2870 OW            1 RES     
    7986 HW1         50.3890    10.4850    88.9430 HW1           1 RES     
    7987 HW2         51.5130     9.3140    88.7610 HW2           1 RES     
    7988 OW          42.1660    16.2680    93.7020 OW            1 RES     
    7989 HW1         42.2280    16.1020    92.7180 HW1           1 RES     
    7990 HW2         41.2570    16.6230    93.9240 HW2           1 RES     
    7991 OW          38.7740    47.8950   102.1580 OW            1 RES     
    7992 HW1         39.1620    47.2660   101.4840 HW1           1 RES     
    7993 HW2         38.8840    48.8360   101.8390 HW2           1 RES     
    7994 OW          50.1250    33.4400    87.0660 OW            1 RES     
    7995 HW1         50.6720    33.1270    86.2900 HW1           1 RES     
    7996 HW2         50.3190    32.8680    87.8630 HW2           1 RES     
    7997 OW          51.7900    10.9020   101.7910 OW            1 RES     
    7998 HW1         51.7550     9.9090   101.8960 HW1           1 RES     
    7999 HW2         50.8650    11.2780   101.8600 HW2           1 RES     
    8000 OW          36.3990    10.4640    95.4540 OW            1 RES     
    8001 HW1         35.6670    11.0700    95.7640 HW1           1 RES     
    8002 HW2         36.9690    10.9430    94.7870 HW2           1 RES     
    8003 OW          30.5350    33.4330    97.9830 OW            1 RES     
    8004 HW1         30.9550    33.8160    98.8050 HW1           1 RES     
    8005 HW2         29.6420    33.8580    97.8350 HW2           1 RES     
    8006 OW          19.0130     1.9820    99.1440 OW            1 RES     
    8007 HW1         18.2340     1.7780    99.7360 HW1           1 RES     
    8008 HW2         19.6870     1.2460    99.2140 HW2           1 RES     
    8009 OW          15.7890     3.9130   107.1120 OW            1 RES     
    8010 HW1         15.0550     4.5440   107.3620 HW1           1 RES     
    8011 HW2         16.6420     4.4220   106.9980 HW2           1 RES     
    8012 OW          18.8580     6.6120    96.7490 OW            1 RES     
    8013 HW1         18.0760     6.5290    96.1320 HW1           1 RES     
    8014 HW2         19.5120     5.8790    96.5590 HW2           1 RES     
    8015 OW           9.7830    14.8660   103.4570 OW            1 RES     
    8016 HW1          8.8880    14.9370   103.8960 HW1           1 RES     
    8017 HW2          9.8280    15.5030   102.6870 HW2           1 RES     
    8018 OW          58.1050    10.7930    93.9900 OW            1 RES     
    8019 HW1         57.6010    10.3260    94.7160 HW1           1 RES     
    8020 HW2         58.4240    10.1220    93.3200 HW2           1 RES     
    8021 OW           8.8680    30.4890    99.2850 OW            1 RES     
    8022 HW1          8.7670    31.4710    99.1350 HW1           1 RES     
    8023 HW2          8.4570    30.2410   100.1630 HW2           1 RES     
    8024 OW          41.8910     7.8510   105.2980 OW            1 RES     
    8025 HW1         42.4430     7.7960   104.4670 HW1           1 RES     
    8026 HW2         42.2680     8.5530   105.9030 HW2           1 RES     
    8027 OW          28.5700    26.4800   105.0430 OW            1 RES     
    8028 HW1         28.9420    25.8760   104.3390 HW1           1 RES     
    8029 HW2         29.3150    26.9920   105.4710 HW2           1 RES     
    8030 OW          16.4500    23.4510   100.0780 OW            1 RES     
    8031 HW1         16.1890    24.2920    99.6050 HW1           1 RES     
    8032 HW2         16.6670    23.6570   101.0320 HW2           1 RES     
    8033 OW          28.5670    16.8170    88.3370 OW            1 RES     
    8034 HW1         28.6460    17.4780    89.0820 HW1           1 RES     
    8035 HW2         27.6020    16.6130    88.1720 HW2           1 RES     
    8036 OW          37.1120     9.8790   104.3480 OW            1 RES     
    8037 HW1         36.3360    10.3800   103.9660 HW1           1 RES     
    8038 HW2         37.9470    10.1330   103.8580 HW2           1 RES     
    8039 OW          21.7770     6.3970    94.8320 OW            1 RES     
    8040 HW1         21.4120     5.5340    95.1820 HW1           1 RES     
    8041 HW2         22.4880     6.2080    94.1540 HW2           1 RES     
    8042 OW          34.9090    40.5740   100.0250 OW            1 RES     
    8043 HW1         34.6200    39.7860   100.5690 HW1           1 RES     
    8044 HW2         35.4660    41.1830   100.5910 HW2           1 RES     
    8045 OW          47.9650    45.0500   108.6080 OW            1 RES     
    8046 HW1         47.0640    45.2710   108.2370 HW1           1 RES     
    8047 HW2         48.1540    45.6370   109.3960 HW2           1 RES     
    8048 OW           5.3460    33.7250    94.9820 OW            1 RES     
    8049 HW1          6.1770    33.5080    94.4720 HW1           1 RES     
    8050 HW2          4.6310    34.0170    94.3460 HW2           1 RES     
    8051 OW          30.4230    14.5110   107.4300 OW            1 RES     
    8052 HW1         29.7830    13.9340   106.9230 HW1           1 RES     
    8053 HW2         30.2190    15.4740   107.2510 HW2           1 RES     
    8054 OW          31.8730     7.8110    88.3640 OW            1 RES     
    8055 HW1         32.7640     8.1280    88.0400 HW1           1 RES     
    8056 HW2         31.8000     6.8230    88.2260 HW2           1 RES     
    8057 OW          53.2160    17.4490   102.0480 OW            1 RES     
    8058 HW1         54.0700    17.2960   102.5440 HW1           1 RES     
    8059 HW2         52.4810    16.9230   102.4770 HW2           1 RES     
    8060 OW          30.0480    39.1960   100.9570 OW            1 RES     
    8061 HW1         29.5350    39.0840   100.1060 HW1           1 RES     
    8062 HW2         29.4250    39.4690   101.6900 HW2           1 RES     
    8063 OW          53.7060    36.0270    99.0230 OW            1 RES     
    8064 HW1         52.7080    35.9810    99.0420 HW1           1 RES     
    8065 HW2         53.9960    36.9840    99.0230 HW2           1 RES     
    8066 OW          37.8090    23.7270    98.5550 OW            1 RES     
    8067 HW1         37.6180    24.7000    98.6760 HW1           1 RES     
    8068 HW2         37.4730    23.2200    99.3500 HW2           1 RES     
    8069 OW          21.6390    17.8380    96.5980 OW            1 RES     
    8070 HW1         22.6310    17.7580    96.6810 HW1           1 RES     
    8071 HW2         21.2030    17.0540    97.0420 HW2           1 RES     
    8072 OW          29.7610    20.5340   110.0440 OW            1 RES     
    8073 HW1         28.9890    20.5450   110.6780 HW1           1 RES     
    8074 HW2         29.8870    21.4470   109.6550 HW2           1 RES     
    8075 OW          10.0080    10.0760    96.8340 OW            1 RES     
    8076 HW1          9.2030     9.4840    96.8340 HW1           1 RES     
    8077 HW2         10.0080    10.6390    97.6610 HW2           1 RES     
    8078 OW          43.4460     1.6220   110.5340 OW            1 RES     
    8079 HW1         44.2290     1.1020   110.1950 HW1           1 RES     
    8080 HW2         43.6990     2.5860   110.6230 HW2           1 RES     
    8081 OW          45.6590     9.5860    94.2490 OW            1 RES     
    8082 HW1         45.8080    10.3470    94.8790 HW1           1 RES     
    8083 HW2         44.8330     9.7540    93.7110 HW2           1 RES     
    8084 OW          34.9490    14.6250    91.6340 OW            1 RES     
    8085 HW1         35.0520    13.7760    91.1170 HW1           1 RES     
    8086 HW2         33.9860    14.8950    91.6440 HW2           1 RES     
    8087 OW          33.1440     8.1680    92.6070 OW            1 RES     
    8088 HW1         33.6720     7.8720    93.4020 HW1           1 RES     
    8089 HW2         33.2930     7.5310    91.8510 HW2           1 RES     
    8090 OW          32.8360    46.9470    89.2060 OW            1 RES     
    8091 HW1         33.4620    46.4820    89.8310 HW1           1 RES     
    8092 HW2         31.8940    46.8090    89.5130 HW2           1 RES     
    8093 OW          32.5710    43.4880   107.8600 OW            1 RES     
    8094 HW1         33.1930    43.6950   107.1060 HW1           1 RES     
    8095 HW2         31.6460    43.3570   107.5020 HW2           1 RES     
    8096 OW          33.0910    21.5160    98.3620 OW            1 RES     
    8097 HW1         33.4890    20.6000    98.3320 HW1           1 RES     
    8098 HW2         32.1070    21.4590    98.1940 HW2           1 RES     
    8099 OW          12.0980     8.0950    89.4420 OW            1 RES     
    8100 HW1         11.8850     8.2960    88.4870 HW1           1 RES     
    8101 HW2         11.8980     8.8980    90.0050 HW2           1 RES     
    8102 OW          15.0850    32.9170   103.0910 OW            1 RES     
    8103 HW1         15.4090    33.8620   103.1110 HW1           1 RES     
    8104 HW2         14.4240    32.7740   103.8280 HW2           1 RES     
    8105 OW          11.1590    44.5610    93.1800 OW            1 RES     
    8106 HW1         11.2370    44.8820    94.1230 HW1           1 RES     
    8107 HW2         12.0470    44.2230    92.8680 HW2           1 RES     
    8108 OW          38.2110    44.7760   102.8410 OW            1 RES     
    8109 HW1         37.6670    45.5870   102.6300 HW1           1 RES     
    8110 HW2         39.1510    45.0490   103.0470 HW2           1 RES     
    8111 OW          61.2540    14.7900   106.8670 OW            1 RES     
    8112 HW1         60.9470    15.5610   106.3100 HW1           1 RES     
    8113 HW2         62.2430    14.8480   107.0000 HW2           1 RES     
    8114 OW          23.8900     9.5010    95.8250 OW            1 RES     
    8115 HW1         23.8120    10.4860    95.9740 HW1           1 RES     
    8116 HW2         23.1900     9.0260    96.3580 HW2           1 RES     
    8117 OW          57.7140    33.5820    97.7830 OW            1 RES     
    8118 HW1         58.3110    32.8040    97.9780 HW1           1 RES     
    8119 HW2         58.2690    34.3650    97.4990 HW2           1 RES     
    8120 OW          30.8780    10.4150   104.2250 OW            1 RES     
    8121 HW1         31.0500    11.3870   104.0720 HW1           1 RES     
    8122 HW2         30.9200    10.2180   105.2040 HW2           1 RES     
    8123 OW          40.5410    30.2690    88.2770 OW            1 RES     
    8124 HW1         40.1320    30.6160    87.4330 HW1           1 RES     
    8125 HW2         41.4190    30.7220    88.4330 HW2           1 RES     
    8126 OW          21.4630    14.9090    86.3440 OW            1 RES     
    8127 HW1         20.8310    15.3000    87.0120 HW1           1 RES     
    8128 HW2         22.2680    14.5490    86.8170 HW2           1 RES     
    8129 OW           7.4080    23.9200   104.1780 OW            1 RES     
    8130 HW1          6.5520    24.1520   103.7180 HW1           1 RES     
    8131 HW2          7.3710    22.9720   104.4940 HW2           1 RES     
    8132 OW           8.1630     4.9810    92.3320 OW            1 RES     
    8133 HW1          7.9470     5.7410    92.9440 HW1           1 RES     
    8134 HW2          7.5600     5.0130    91.5340 HW2           1 RES     
    8135 OW          11.0120     8.8710   102.6420 OW            1 RES     
    8136 HW1         10.6620     7.9350   102.6230 HW1           1 RES     
    8137 HW2         11.9980     8.8620   102.4790 HW2           1 RES     
    8138 OW           8.5070    11.7690   101.0400 OW            1 RES     
    8139 HW1          8.5380    12.2450   100.1610 HW1           1 RES     
    8140 HW2          9.0200    12.2920   101.7210 HW2           1 RES     
    8141 OW          34.1470    14.0620    93.7920 OW            1 RES     
    8142 HW1         34.8740    14.7430    93.8770 HW1           1 RES     
    8143 HW2         34.5520    13.1520    93.7020 HW2           1 RES     
    8144 OW          18.9290     3.5000   100.9790 OW            1 RES     
    8145 HW1         19.7310     4.0960   100.9540 HW1           1 RES     
    8146 HW2         18.0990     4.0580   100.9840 HW2           1 RES     
    8147 OW          23.1770    36.8420    99.6640 OW            1 RES     
    8148 HW1         23.4440    35.9080    99.9000 HW1           1 RES     
    8149 HW2         23.9940    37.4140    99.5900 HW2           1 RES     
    8150 OW          33.6870     0.4880    99.8180 OW            1 RES     
    8151 HW1         33.4330     1.4240    99.5750 HW1           1 RES     
    8152 HW2         34.4880     0.2110    99.2870 HW2           1 RES     
    8153 OW          29.7540     3.3030   106.6030 OW            1 RES     
    8154 HW1         30.6570     3.6950   106.7750 HW1           1 RES     
    8155 HW2         29.0540     4.0040   106.7410 HW2           1 RES     
    8156 OW          52.0030    48.5340   100.7390 OW            1 RES     
    8157 HW1         51.5110    48.7600   101.5790 HW1           1 RES     
    8158 HW2         51.7120    47.6340   100.4140 HW2           1 RES     
    8159 OW           7.2580    19.8790   107.9420 OW            1 RES     
    8160 HW1          6.6610    19.8180   108.7410 HW1           1 RES     
    8161 HW2          6.9180    20.5880   107.3240 HW2           1 RES     
    8162 OW          31.8910    44.2140    99.6950 OW            1 RES     
    8163 HW1         31.4210    44.8280    99.0630 HW1           1 RES     
    8164 HW2         32.6550    44.6960   100.1230 HW2           1 RES     
    8165 OW          25.2340     7.9250    91.5080 OW            1 RES     
    8166 HW1         24.3530     8.3950    91.5020 HW1           1 RES     
    8167 HW2         25.0860     6.9360    91.4920 HW2           1 RES     
    8168 OW          58.9120    20.3940   101.0450 OW            1 RES     
    8169 HW1         59.0360    19.4700   100.6850 HW1           1 RES     
    8170 HW2         59.8060    20.8190   101.1870 HW2           1 RES     
    8171 OW          31.6270     8.6000    90.4060 OW            1 RES     
    8172 HW1         31.8920     9.5560    90.2820 HW1           1 RES     
    8173 HW2         30.6430     8.5040    90.2560 HW2           1 RES     
    8174 OW          49.7240    43.1230   106.5060 OW            1 RES     
    8175 HW1         50.5190    42.7800   106.0090 HW1           1 RES     
    8176 HW2         49.2200    42.3550   106.9020 HW2           1 RES     
    8177 OW           0.1730    36.1450   107.9710 OW            1 RES     
    8178 HW1          0.1840    35.1670   108.1770 HW1           1 RES     
    8179 HW2          1.0160    36.5670   108.3060 HW2           1 RES     
    8180 OW          49.2360     0.9130   104.7450 OW            1 RES     
    8181 HW1         49.6560     1.4800   105.4520 HW1           1 RES     
    8182 HW2         48.3040     0.6720   105.0190 HW2           1 RES     
    8183 OW           6.8890    25.1820   106.1110 OW            1 RES     
    8184 HW1          7.8270    24.9040   106.3170 HW1           1 RES     
    8185 HW2          6.9030    26.0120   105.5520 HW2           1 RES     
    8186 OW          45.7800    38.2360   102.6440 OW            1 RES     
    8187 HW1         45.7420    37.2580   102.4410 HW1           1 RES     
    8188 HW2         44.8520    38.6050   102.6860 HW2           1 RES     
    8189 OW          12.6720    18.7200   101.6670 OW            1 RES     
    8190 HW1         11.9170    19.3730   101.6120 HW1           1 RES     
    8191 HW2         13.3830    19.0810   102.2710 HW2           1 RES     
    8192 OW          46.1890    42.4090   104.6480 OW            1 RES     
    8193 HW1         46.7490    41.8140   105.2240 HW1           1 RES     
    8194 HW2         46.0370    41.9700   103.7630 HW2           1 RES     
    8195 OW          42.8200    28.5900    93.0110 OW            1 RES     
    8196 HW1         42.6370    28.9270    93.9340 HW1           1 RES     
    8197 HW2         42.2000    29.0360    92.3640 HW2           1 RES     
    8198 OW          25.2790    43.2860   107.5890 OW            1 RES     
    8199 HW1         24.9560    42.5400   108.1710 HW1           1 RES     
    8200 HW2         24.5080    43.8730   107.3400 HW2           1 RES     
    8201 OW          16.5290    39.0920   106.2720 OW            1 RES     
    8202 HW1         15.6940    39.4080   105.8240 HW1           1 RES     
    8203 HW2         16.9200    38.3330   105.7520 HW2           1 RES     
    8204 OW          26.0710     2.4060    96.1010 OW            1 RES     
    8205 HW1         25.6330     3.2220    96.4770 HW1           1 RES     
    8206 HW2         26.7460     2.0600    96.7520 HW2           1 RES     
    8207 OW          58.6850    24.5130   109.5250 OW            1 RES     
    8208 HW1         59.5060    24.9560   109.8830 HW1           1 RES     
    8209 HW2         57.8840    24.8360   110.0290 HW2           1 RES     
    8210 OW          21.0340    33.5700    87.1330 OW            1 RES     
    8211 HW1         21.9160    33.1010    87.1640 HW1           1 RES     
    8212 HW2         20.3130    32.9120    86.9140 HW2           1 RES     
    8213 OW          61.9450     5.8420   102.1570 OW            1 RES     
    8214 HW1         62.3760     4.9410   102.1490 HW1           1 RES     
    8215 HW2         62.6290     6.5420   101.9480 HW2           1 RES     
    8216 OW          41.4980    26.4480   102.2700 OW            1 RES     
    8217 HW1         42.4920    26.3670   102.2000 HW1           1 RES     
    8218 HW2         41.0810    25.5450   102.1630 HW2           1 RES     
    8219 OW          31.5700     3.1340   109.0010 OW            1 RES     
    8220 HW1         31.2230     2.3150   108.5440 HW1           1 RES     
    8221 HW2         30.8130     3.7610   109.1840 HW2           1 RES     
    8222 OW          47.9630    34.0000   101.2760 OW            1 RES     
    8223 HW1         47.8800    33.0200   101.0960 HW1           1 RES     
    8224 HW2         48.2320    34.1430   102.2290 HW2           1 RES     
    8225 OW          23.5110    44.7470     0.0180 OW            1 RES     
    8226 HW1         23.1350    43.8340     0.1690 HW1           1 RES     
    8227 HW2         22.7870    45.4290     0.1300 HW2           1 RES     
    8228 OW          33.7730    44.1480    13.7910 OW            1 RES     
    8229 HW1         33.3200    43.2640    13.9040 HW1           1 RES     
    8230 HW2         33.1660    44.7730    13.2990 HW2           1 RES     
    8231 OW           7.9560    25.8650     8.8020 OW            1 RES     
    8232 HW1          8.0540    25.9150     9.7950 HW1           1 RES     
    8233 HW2          8.2590    24.9680     8.4810 HW2           1 RES     
    8234 OW          51.8210    13.2190    23.8310 OW            1 RES     
    8235 HW1         51.7680    12.7450    24.7090 HW1           1 RES     
    8236 HW2         52.1180    14.1620    23.9790 HW2           1 RES     
    8237 OW          28.9710    17.5180    18.7640 OW            1 RES     
    8238 HW1         28.7490    17.5250    19.7390 HW1           1 RES     
    8239 HW2         29.9630    17.5680    18.6470 HW2           1 RES     
    8240 OW          25.8050    37.2490     0.2380 OW            1 RES     
    8241 HW1         25.7520    37.0830     1.2220 HW1           1 RES     
    8242 HW2         25.2380    38.0380     0.0010 HW2           1 RES     
    8243 OW          38.4760    48.5640    14.8050 OW            1 RES     
    8244 HW1         39.0670    47.7580    14.8000 HW1           1 RES     
    8245 HW2         37.5210    48.2780    14.8860 HW2           1 RES     
    8246 OW          51.4630    11.4870     7.1300 OW            1 RES     
    8247 HW1         52.3930    11.3110     6.8110 HW1           1 RES     
    8248 HW2         51.1290    12.3410     6.7310 HW2           1 RES     
    8249 OW          49.2410    27.2170    11.3120 OW            1 RES     
    8250 HW1         49.6380    27.5510    10.4580 HW1           1 RES     
    8251 HW2         49.9670    27.0740    11.9850 HW2           1 RES     
    8252 OW          11.1830    13.5790    10.5040 OW            1 RES     
    8253 HW1         10.7040    14.4560    10.4770 HW1           1 RES     
    8254 HW2         12.1310    13.7250    10.7850 HW2           1 RES     
    8255 OW          59.1040    34.0880    21.4630 OW            1 RES     
    8256 HW1         59.5940    34.9580    21.4170 HW1           1 RES     
    8257 HW2         59.6520    33.3730    21.0300 HW2           1 RES     
    8258 OW          55.1290     7.2700    11.8530 OW            1 RES     
    8259 HW1         54.9920     6.2830    11.9290 HW1           1 RES     
    8260 HW2         54.5280     7.7410    12.4990 HW2           1 RES     
    8261 OW          62.4550    20.1680    13.4920 OW            1 RES     
    8262 HW1         62.1720    20.8890    14.1240 HW1           1 RES     
    8263 HW2         62.0960    20.3650    12.5790 HW2           1 RES     
    8264 OW          28.4880     7.3700     3.8600 OW            1 RES     
    8265 HW1         29.2590     7.9190     3.5370 HW1           1 RES     
    8266 HW2         28.7940     6.4340     4.0340 HW2           1 RES     
    8267 OW          24.5100    26.9750     7.9090 OW            1 RES     
    8268 HW1         24.0320    26.3330     8.5080 HW1           1 RES     
    8269 HW2         24.4570    27.8960     8.2960 HW2           1 RES     
    8270 OW          20.2470    29.8550     5.4260 OW            1 RES     
    8271 HW1         20.3500    30.8440     5.5230 HW1           1 RES     
    8272 HW2         20.6830    29.5560     4.5760 HW2           1 RES     
    8273 OW          45.6020    43.5890    12.7020 OW            1 RES     
    8274 HW1         46.1650    42.7630    12.7020 HW1           1 RES     
    8275 HW2         46.1880    44.3930    12.6090 HW2           1 RES     
    8276 OW          58.7690    22.7330     0.3620 OW            1 RES     
    8277 HW1         57.8320    23.0400     0.1980 HW1           1 RES     
    8278 HW2         58.8790    21.8000     0.0190 HW2           1 RES     
    8279 OW          25.0950    23.6820    21.7270 OW            1 RES     
    8280 HW1         25.9190    23.1530    21.9270 HW1           1 RES     
    8281 HW2         25.3520    24.5670    21.3400 HW2           1 RES     
    8282 OW          61.3030    10.5470     3.7700 OW            1 RES     
    8283 HW1         61.5750    10.1050     4.6230 HW1           1 RES     
    8284 HW2         62.0800    10.5640     3.1400 HW2           1 RES     
    8285 OW          13.0040     1.0140     8.5750 OW            1 RES     
    8286 HW1         12.9840     1.9060     8.1230 HW1           1 RES     
    8287 HW2         13.3380     1.1210     9.5110 HW2           1 RES     
    8288 OW          11.7400    18.6040    13.0110 OW            1 RES     
    8289 HW1         11.4290    17.6770    13.2190 HW1           1 RES     
    8290 HW2         10.9490    19.2100    12.9250 HW2           1 RES     
    8291 OW           0.0000     8.8210    21.8040 OW            1 RES     
    8292 HW1          0.0050     7.8220    21.8230 HW1           1 RES     
    8293 HW2          0.9410     9.1600    21.8250 HW2           1 RES     
    8294 OW           7.4110    48.7220    10.4990 OW            1 RES     
    8295 HW1          7.9060    48.8420    11.3580 HW1           1 RES     
    8296 HW2          6.4290    48.6710    10.6830 HW2           1 RES     
    8297 OW          56.1250    23.2130    17.3340 OW            1 RES     
    8298 HW1         56.0210    22.4650    17.9880 HW1           1 RES     
    8299 HW2         55.4540    23.1090    16.5990 HW2           1 RES     
    8300 OW          30.2440    31.1460     1.4050 OW            1 RES     
    8301 HW1         30.4650    32.0740     1.1080 HW1           1 RES     
    8302 HW2         30.3290    31.0840     2.4000 HW2           1 RES     
    8303 OW           9.7960    47.7850    16.1900 OW            1 RES     
    8304 HW1          9.6840    46.9110    15.7190 HW1           1 RES     
    8305 HW2          9.5050    48.5290    15.5880 HW2           1 RES     
    8306 OW          12.3540     6.8110    10.4030 OW            1 RES     
    8307 HW1         11.3590     6.8520    10.4880 HW1           1 RES     
    8308 HW2         12.6420     5.8600    10.2930 HW2           1 RES     
    8309 OW           3.8520    46.6750    11.1110 OW            1 RES     
    8310 HW1          2.9430    46.3010    10.9300 HW1           1 RES     
    8311 HW2          4.5400    45.9620    10.9720 HW2           1 RES     
    8312 OW          27.9200    35.6000    21.3650 OW            1 RES     
    8313 HW1         27.2500    36.3300    21.2350 HW1           1 RES     
    8314 HW2         28.0950    35.1470    20.4910 HW2           1 RES     
    8315 OW           5.6570    35.4320     8.0170 OW            1 RES     
    8316 HW1          4.8280    35.9860     8.0870 HW1           1 RES     
    8317 HW2          5.4690    34.6200     7.4640 HW2           1 RES     
    8318 OW          49.4640    18.1650    11.2680 OW            1 RES     
    8319 HW1         49.0380    18.8960    11.7990 HW1           1 RES     
    8320 HW2         50.1470    18.5540    10.6500 HW2           1 RES     
    8321 OW          20.8250     3.6890    22.3480 OW            1 RES     
    8322 HW1         21.3340     2.8290    22.3460 HW1           1 RES     
    8323 HW2         19.8470     3.4970    22.4340 HW2           1 RES     
    8324 OW          23.7070    27.7570    12.7580 OW            1 RES     
    8325 HW1         23.9790    26.8250    12.9950 HW1           1 RES     
    8326 HW2         24.1780    28.0400    11.9220 HW2           1 RES     
    8327 OW          56.3560    28.0800    16.6610 OW            1 RES     
    8328 HW1         56.3910    27.5180    17.4870 HW1           1 RES     
    8329 HW2         56.6920    27.5500    15.8820 HW2           1 RES     
    8330 OW          50.2630    22.7000     0.3660 OW            1 RES     
    8331 HW1         49.8640    21.7940     0.2320 HW1           1 RES     
    8332 HW2         51.2110    22.6060     0.6710 HW2           1 RES     
    8333 OW           6.1620     7.2210    12.8060 OW            1 RES     
    8334 HW1          6.9740     7.7890    12.9350 HW1           1 RES     
    8335 HW2          6.4400     6.2970    12.5440 HW2           1 RES     
    8336 OW          17.6290    25.8750    21.4810 OW            1 RES     
    8337 HW1         17.6120    26.0330    22.4680 HW1           1 RES     
    8338 HW2         18.5100    25.4800    21.2210 HW2           1 RES     
    8339 OW          32.3860     5.9000     1.4190 OW            1 RES     
    8340 HW1         31.5870     6.3880     1.0680 HW1           1 RES     
    8341 HW2         33.2110     6.4360     1.2390 HW2           1 RES     
    8342 OW          32.5590    48.1830     0.2300 OW            1 RES     
    8343 HW1         33.5100    47.8850     0.3080 HW1           1 RES     
    8344 HW2         31.9820    47.3990     0.0000 HW2           1 RES     
    8345 OW           6.0800    38.9740     5.6980 OW            1 RES     
    8346 HW1          5.7920    38.0960     6.0790 HW1           1 RES     
    8347 HW2          6.9760    38.8740     5.2670 HW2           1 RES     
    8348 OW          53.0350     0.5300    23.9900 OW            1 RES     
    8349 HW1         52.9370     1.2180    23.2720 HW1           1 RES     
    8350 HW2         53.0910     0.9810    24.8810 HW2           1 RES     
    8351 OW          11.2310    18.1740    17.4130 OW            1 RES     
    8352 HW1         11.5950    19.1010    17.3220 HW1           1 RES     
    8353 HW2         11.9180    17.5860    17.8410 HW2           1 RES     
    8354 OW          27.3140    40.1140    17.9180 OW            1 RES     
    8355 HW1         27.7590    40.0120    17.0290 HW1           1 RES     
    8356 HW2         27.4210    39.2710    18.4450 HW2           1 RES     
    8357 OW          62.2650    19.1500     3.7720 OW            1 RES     
    8358 HW1         62.6310    18.3380     3.3210 HW1           1 RES     
    8359 HW2         61.2820    19.0370     3.9190 HW2           1 RES     
    8360 OW          47.5950    41.0930     2.0230 OW            1 RES     
    8361 HW1         46.6020    41.0170     2.0940 HW1           1 RES     
    8362 HW2         47.8450    42.0420     1.8250 HW2           1 RES     
    8363 OW          48.3550     1.5970    19.2760 OW            1 RES     
    8364 HW1         47.8150     0.7840    19.0590 HW1           1 RES     
    8365 HW2         48.8580     1.4450    20.1270 HW2           1 RES     
    8366 OW          62.5410    36.8850    15.9450 OW            1 RES     
    8367 HW1         62.0430    37.7420    16.0720 HW1           1 RES     
    8368 HW2         61.8940    36.1240    15.9150 HW2           1 RES     
    8369 OW          50.5690    44.2540    12.2440 OW            1 RES     
    8370 HW1         51.4720    43.8440    12.3680 HW1           1 RES     
    8371 HW2         49.8920    43.5320    12.0960 HW2           1 RES     
    8372 OW          56.3420    37.0460     6.4980 OW            1 RES     
    8373 HW1         56.8780    36.2190     6.6650 HW1           1 RES     
    8374 HW2         55.4660    36.9790     6.9770 HW2           1 RES     
    8375 OW          61.3540    34.6460     9.4420 OW            1 RES     
    8376 HW1         61.2460    35.6030     9.1740 HW1           1 RES     
    8377 HW2         60.5470    34.3480     9.9520 HW2           1 RES     
    8378 OW          45.8550    47.3770    22.7060 OW            1 RES     
    8379 HW1         45.1030    46.7290    22.5940 HW1           1 RES     
    8380 HW2         45.5860    48.0920    23.3510 HW2           1 RES     
    8381 OW          53.5360     6.6220     7.1280 OW            1 RES     
    8382 HW1         52.8870     5.9050     6.8740 HW1           1 RES     
    8383 HW2         53.6790     6.6070     8.1180 HW2           1 RES     
    8384 OW          42.4530    24.9390     4.2900 OW            1 RES     
    8385 HW1         42.9880    25.0490     3.4530 HW1           1 RES     
    8386 HW2         41.5390    25.3240     4.1540 HW2           1 RES     
    8387 OW          57.9380    48.8400    23.2920 OW            1 RES     
    8388 HW1         56.9870    48.5410    23.3610 HW1           1 RES     
    8389 HW2         58.2180    48.8420    22.3310 HW2           1 RES     
    8390 OW          36.2140    38.0950    11.6210 OW            1 RES     
    8391 HW1         35.4400    37.4640    11.5850 HW1           1 RES     
    8392 HW2         36.4580    38.2700    12.5750 HW2           1 RES     
    8393 OW          24.2380    10.5510    20.2400 OW            1 RES     
    8394 HW1         25.0790    10.7980    19.7600 HW1           1 RES     
    8395 HW2         23.7320    11.3810    20.4750 HW2           1 RES     
    8396 OW          50.8280    25.4550    23.6980 OW            1 RES     
    8397 HW1         50.9290    25.6580    24.6720 HW1           1 RES     
    8398 HW2         50.0750    24.8080    23.5680 HW2           1 RES     
    8399 OW           5.0200    42.9000     8.2650 OW            1 RES     
    8400 HW1          4.3120    42.9220     8.9700 HW1           1 RES     
    8401 HW2          5.3430    41.9610     8.1450 HW2           1 RES     
    8402 OW          42.3190     5.8100    22.9060 OW            1 RES     
    8403 HW1         41.9780     6.5930    22.3860 HW1           1 RES     
    8404 HW2         43.2630     5.6170    22.6380 HW2           1 RES     
    8405 OW          24.3660    17.0440    14.4740 OW            1 RES     
    8406 HW1         23.4540    16.6350    14.4700 HW1           1 RES     
    8407 HW2         24.2850    18.0400    14.5180 HW2           1 RES     
    8408 OW          20.6820     5.8330    24.2740 OW            1 RES     
    8409 HW1         21.4790     5.2410    24.1580 HW1           1 RES     
    8410 HW2         19.8520     5.2750    24.2900 HW2           1 RES     
    8411 OW          52.4110    38.1380    21.3750 OW            1 RES     
    8412 HW1         52.5550    37.4200    22.0560 HW1           1 RES     
    8413 HW2         51.7520    38.8030    21.7270 HW2           1 RES     
    8414 OW          62.5850     2.7760    17.1480 OW            1 RES     
    8415 HW1         62.6310     2.2270    17.9820 HW1           1 RES     
    8416 HW2         61.6300     2.9900    16.9410 HW2           1 RES     
    8417 OW          46.7570     2.0640    21.8090 OW            1 RES     
    8418 HW1         47.3080     2.8260    21.4710 HW1           1 RES     
    8419 HW2         46.2620     1.6460    21.0470 HW2           1 RES     
    8420 OW          11.6750    37.2610    23.9500 OW            1 RES     
    8421 HW1         11.1890    38.0870    23.6650 HW1           1 RES     
    8422 HW2         11.0430    36.6490    24.4260 HW2           1 RES     
    8423 OW           5.4070    44.6470    18.9050 OW            1 RES     
    8424 HW1          5.9410    43.8120    18.7770 HW1           1 RES     
    8425 HW2          6.0240    45.4130    19.0840 HW2           1 RES     
    8426 OW          55.1170    38.8260     5.3890 OW            1 RES     
    8427 HW1         54.6970    39.2480     6.1920 HW1           1 RES     
    8428 HW2         55.2570    39.5190     4.6820 HW2           1 RES     
    8429 OW          21.0200     6.5150    19.7590 OW            1 RES     
    8430 HW1         21.4600     5.7440    20.2180 HW1           1 RES     
    8431 HW2         20.7290     7.1870    20.4410 HW2           1 RES     
    8432 OW          38.8270    26.7010     7.2610 OW            1 RES     
    8433 HW1         39.5790    26.2410     6.7910 HW1           1 RES     
    8434 HW2         38.6510    27.5840     6.8260 HW2           1 RES     
    8435 OW          40.4880    10.4690    19.4600 OW            1 RES     
    8436 HW1         39.8090    10.5130    18.7280 HW1           1 RES     
    8437 HW2         40.8900    11.3750    19.5980 HW2           1 RES     
    8438 OW          11.5630    40.0390    13.2120 OW            1 RES     
    8439 HW1         11.7740    39.2740    13.8200 HW1           1 RES     
    8440 HW2         11.0200    40.7180    13.7070 HW2           1 RES     
    8441 OW          50.9140    17.8310     5.2130 OW            1 RES     
    8442 HW1         50.1410    18.3260     5.6090 HW1           1 RES     
    8443 HW2         51.4310    17.3810     5.9420 HW2           1 RES     
    8444 OW          61.4620     3.3150     4.7390 OW            1 RES     
    8445 HW1         60.7000     3.9600     4.6960 HW1           1 RES     
    8446 HW2         62.3230     3.8190     4.8170 HW2           1 RES     
    8447 OW          48.3620    22.3170    18.6610 OW            1 RES     
    8448 HW1         48.0520    23.2670    18.6800 HW1           1 RES     
    8449 HW2         47.5750    21.7070    18.7520 HW2           1 RES     
    8450 OW          25.0000    44.2870     1.5710 OW            1 RES     
    8451 HW1         24.7060    43.3770     1.8610 HW1           1 RES     
    8452 HW2         24.8680    44.9350     2.3200 HW2           1 RES     
    8453 OW           2.4690     0.7730    14.8630 OW            1 RES     
    8454 HW1          2.8200     1.7080    14.9090 HW1           1 RES     
    8455 HW2          2.8800     0.2250    15.5920 HW2           1 RES     
    8456 OW          29.7380    13.7070    19.5390 OW            1 RES     
    8457 HW1         28.9380    13.1100    19.5000 HW1           1 RES     
    8458 HW2         30.5600    13.1550    19.6780 HW2           1 RES     
    8459 OW          47.0200    41.8420     9.0440 OW            1 RES     
    8460 HW1         47.9660    41.9110     8.7310 HW1           1 RES     
    8461 HW2         46.6140    42.7550     9.0840 HW2           1 RES     
    8462 OW          37.3810    24.2610    18.1000 OW            1 RES     
    8463 HW1         36.6900    24.9560    17.9040 HW1           1 RES     
    8464 HW2         38.2780    24.6950    18.1800 HW2           1 RES     
    8465 OW           5.8750    48.0820    24.3500 OW            1 RES     
    8466 HW1          6.8420    47.8430    24.2660 HW1           1 RES     
    8467 HW2          5.3280    47.2470    24.4130 HW2           1 RES     
    8468 OW           2.8950    33.0400     7.4970 OW            1 RES     
    8469 HW1          3.2080    33.8200     8.0380 HW1           1 RES     
    8470 HW2          3.4680    32.2440     7.6950 HW2           1 RES     
    8471 OW          41.6510    12.9460     3.4850 OW            1 RES     
    8472 HW1         41.6160    12.1200     2.9240 HW1           1 RES     
    8473 HW2         41.0280    13.6320     3.1080 HW2           1 RES     
    8474 OW          26.3750    19.0790    19.6490 OW            1 RES     
    8475 HW1         25.8290    19.8740    19.3860 HW1           1 RES     
    8476 HW2         27.2170    19.3850    20.0940 HW2           1 RES     
    8477 OW          30.8760    19.5290    16.6110 OW            1 RES     
    8478 HW1         30.4360    20.4260    16.5650 HW1           1 RES     
    8479 HW2         31.8670    19.6390    16.5380 HW2           1 RES     
    8480 OW          17.4390    22.2150    10.8530 OW            1 RES     
    8481 HW1         18.3630    22.5940    10.8300 HW1           1 RES     
    8482 HW2         16.9200    22.5540    10.0680 HW2           1 RES     
    8483 OW          34.8820    41.2460    18.1120 OW            1 RES     
    8484 HW1         34.5080    41.9580    17.5190 HW1           1 RES     
    8485 HW2         34.1440    40.6470    18.4210 HW2           1 RES     
    8486 OW           5.6230    46.3270     4.4530 OW            1 RES     
    8487 HW1          5.6380    45.4250     4.0230 HW1           1 RES     
    8488 HW2          4.8060    46.8230     4.1600 HW2           1 RES     
    8489 OW          46.0320    24.6430    17.0370 OW            1 RES     
    8490 HW1         46.9140    24.1750    17.0200 HW1           1 RES     
    8491 HW2         45.2950    23.9680    17.0610 HW2           1 RES     
    8492 OW          47.7080    38.2180    20.7520 OW            1 RES     
    8493 HW1         47.5770    39.1880    20.9500 HW1           1 RES     
    8494 HW2         48.6860    38.0150    20.7070 HW2           1 RES     
    8495 OW          26.0260    22.1990    13.0280 OW            1 RES     
    8496 HW1         25.4770    21.3640    13.0150 HW1           1 RES     
    8497 HW2         26.8590    22.0600    12.4920 HW2           1 RES     
    8498 OW          53.1690    25.1340     0.3270 OW            1 RES     
    8499 HW1         54.1420    25.1430     0.0980 HW1           1 RES     
    8500 HW2         52.8760    24.1930     0.4990 HW2           1 RES     
    8501 OW          25.1570    45.4630    21.6570 OW            1 RES     
    8502 HW1         26.1210    45.4290    21.3990 HW1           1 RES     
    8503 HW2         25.0530    45.1540    22.6030 HW2           1 RES     
    8504 OW          20.4460     2.7150    15.0790 OW            1 RES     
    8505 HW1         20.1890     2.3780    14.1740 HW1           1 RES     
    8506 HW2         21.4130     2.5210    15.2460 HW2           1 RES     
    8507 OW          37.1370    14.4950    11.5220 OW            1 RES     
    8508 HW1         37.6810    15.2630    11.1850 HW1           1 RES     
    8509 HW2         37.7390    13.8260    11.9590 HW2           1 RES     
    8510 OW          12.7000    33.6910    10.0760 OW            1 RES     
    8511 HW1         11.9610    34.1800    10.5370 HW1           1 RES     
    8512 HW2         13.5360    34.2390    10.1110 HW2           1 RES     
    8513 OW          21.1080    41.3200     4.9970 OW            1 RES     
    8514 HW1         20.4370    41.4160     4.2630 HW1           1 RES     
    8515 HW2         21.9970    41.0800     4.6080 HW2           1 RES     
    8516 OW          53.3350    35.9250    16.3220 OW            1 RES     
    8517 HW1         54.1630    35.4410    16.6060 HW1           1 RES     
    8518 HW2         52.9770    36.4540    17.0910 HW2           1 RES     
    8519 OW          19.6410    12.7660     8.3440 OW            1 RES     
    8520 HW1         18.7040    12.4910     8.1320 HW1           1 RES     
    8521 HW2         19.6410    13.6950     8.7140 HW2           1 RES     
    8522 OW          25.5640    36.5840    24.4910 OW            1 RES     
    8523 HW1         25.2000    37.3720    23.9950 HW1           1 RES     
    8524 HW2         26.5350    36.4750    24.2790 HW2           1 RES     
    8525 OW          49.3190    13.7880    20.9710 OW            1 RES     
    8526 HW1         49.7830    14.5790    20.5740 HW1           1 RES     
    8527 HW2         48.3640    13.7780    20.6730 HW2           1 RES     
    8528 OW          22.9880     3.9400    20.4820 OW            1 RES     
    8529 HW1         23.0210     4.4370    21.3490 HW1           1 RES     
    8530 HW2         23.8950     3.9420    20.0610 HW2           1 RES     
    8531 OW          53.6050    12.8730     5.2880 OW            1 RES     
    8532 HW1         52.9660    13.6420     5.2900 HW1           1 RES     
    8533 HW2         54.5430    13.2180     5.2970 HW2           1 RES     
    8534 OW           1.2930    22.0040     3.9200 OW            1 RES     
    8535 HW1          2.2350    22.2110     4.1820 HW1           1 RES     
    8536 HW2          0.7790    22.8550     3.8170 HW2           1 RES     
    8537 OW          46.8520     8.4890     7.9500 OW            1 RES     
    8538 HW1         46.5600     7.9990     8.7710 HW1           1 RES     
    8539 HW2         46.0680     8.9600     7.5460 HW2           1 RES     
    8540 OW           5.6530    11.8370    16.0090 OW            1 RES     
    8541 HW1          6.2400    11.6910    16.8040 HW1           1 RES     
    8542 HW2          5.3610    10.9540    15.6430 HW2           1 RES     
    8543 OW          56.2450    15.8380     9.3360 OW            1 RES     
    8544 HW1         56.3350    14.8430     9.3340 HW1           1 RES     
    8545 HW2         57.1540    16.2560     9.3430 HW2           1 RES     
    8546 OW          53.6850     9.5310     7.2260 OW            1 RES     
    8547 HW1         54.0370     9.6100     6.2940 HW1           1 RES     
    8548 HW2         54.1240     8.7570     7.6830 HW2           1 RES     
    8549 OW           8.5130     7.7490    24.8630 OW            1 RES     
    8550 HW1          7.6570     7.3550    24.5310 HW1           1 RES     
    8551 HW2          8.4180     8.7420    24.9360 HW2           1 RES     
    8552 OW           9.5810     8.8510    21.7650 OW            1 RES     
    8553 HW1         10.4110     8.3210    21.9350 HW1           1 RES     
    8554 HW2          9.8260     9.8020    21.5750 HW2           1 RES     
    8555 OW          61.3740    31.6220    12.0750 OW            1 RES     
    8556 HW1         62.0090    32.3940    12.1020 HW1           1 RES     
    8557 HW2         61.8910    30.7660    12.0650 HW2           1 RES     
    8558 OW          27.2850    23.2470     7.5750 OW            1 RES     
    8559 HW1         26.9180    22.5430     6.9680 HW1           1 RES     
    8560 HW2         27.6030    24.0240     7.0310 HW2           1 RES     
    8561 OW          54.1120    41.6130    20.4670 OW            1 RES     
    8562 HW1         54.8670    42.2570    20.3490 HW1           1 RES     
    8563 HW2         54.4340    40.8090    20.9680 HW2           1 RES     
    8564 OW           5.7620     4.7690     6.3590 OW            1 RES     
    8565 HW1          6.4710     5.4100     6.6520 HW1           1 RES     
    8566 HW2          4.8700     5.2210     6.3920 HW2           1 RES     
    8567 OW          30.2410    34.3170    21.9310 OW            1 RES     
    8568 HW1         30.2780    34.5590    22.9000 HW1           1 RES     
    8569 HW2         30.5640    35.0880    21.3820 HW2           1 RES     
    8570 OW          55.1080    15.3860    25.0580 OW            1 RES     
    8571 HW1         54.1700    15.0790    24.9050 HW1           1 RES     
    8572 HW2         55.7200    14.5940    25.0750 HW2           1 RES     
    8573 OW           4.9260    39.3330    21.4540 OW            1 RES     
    8574 HW1          5.8910    39.5880    21.5100 HW1           1 RES     
    8575 HW2          4.3660    40.0500    21.8680 HW2           1 RES     
    8576 OW          50.9790     6.1290    13.4730 OW            1 RES     
    8577 HW1         51.9720     6.0520    13.3970 HW1           1 RES     
    8578 HW2         50.5700     5.2160    13.4600 HW2           1 RES     
    8579 OW          33.2380    29.5330    14.5030 OW            1 RES     
    8580 HW1         33.9440    29.9740    15.0560 HW1           1 RES     
    8581 HW2         33.1020    28.5940    14.8200 HW2           1 RES     
    8582 OW          57.4900    34.7560    14.4770 OW            1 RES     
    8583 HW1         57.8820    35.5050    15.0100 HW1           1 RES     
    8584 HW2         58.2070    34.3240    13.9310 HW2           1 RES     
    8585 OW          38.6680    14.0200    15.2440 OW            1 RES     
    8586 HW1         38.0270    13.9310    16.0060 HW1           1 RES     
    8587 HW2         38.2890    14.6450    14.5610 HW2           1 RES     
    8588 OW          28.3040    17.6870     9.3740 OW            1 RES     
    8589 HW1         27.3500    17.4360     9.5360 HW1           1 RES     
    8590 HW2         28.3790    18.6800     9.2880 HW2           1 RES     
    8591 OW          44.2270    10.6110     8.1930 OW            1 RES     
    8592 HW1         44.6200    11.5240     8.0860 HW1           1 RES     
    8593 HW2         44.7420    10.1050     8.8850 HW2           1 RES     
    8594 OW          26.0600    19.7740     9.0460 OW            1 RES     
    8595 HW1         25.4700    19.4410     9.7810 HW1           1 RES     
    8596 HW2         26.1760    20.7640     9.1330 HW2           1 RES     
    8597 OW          44.7230    47.2670     2.6100 OW            1 RES     
    8598 HW1         43.8670    47.3270     3.1240 HW1           1 RES     
    8599 HW2         44.9190    48.1510     2.1840 HW2           1 RES     
    8600 OW          61.2240    44.1240     2.9330 OW            1 RES     
    8601 HW1         62.2170    44.1280     2.8210 HW1           1 RES     
    8602 HW2         60.9710    44.7250     3.6920 HW2           1 RES     
    8603 OW          54.9500    36.7380    10.6920 OW            1 RES     
    8604 HW1         54.0530    36.7880    11.1290 HW1           1 RES     
    8605 HW2         55.6350    37.1610    11.2860 HW2           1 RES     
    8606 OW          53.5140    12.7140    14.6520 OW            1 RES     
    8607 HW1         53.0400    11.9010    14.9890 HW1           1 RES     
    8608 HW2         52.8430    13.4150    14.4080 HW2           1 RES     
    8609 OW          41.3390     5.3090    14.4090 OW            1 RES     
    8610 HW1         40.3600     5.2390    14.5970 HW1           1 RES     
    8611 HW2         41.7790     4.4310    14.6020 HW2           1 RES     
    8612 OW           5.4710    30.0800     1.2960 OW            1 RES     
    8613 HW1          4.8390    30.8460     1.4050 HW1           1 RES     
    8614 HW2          5.0520    29.2470     1.6580 HW2           1 RES     
    8615 OW          12.0200    28.0090     8.8170 OW            1 RES     
    8616 HW1         11.2120    27.4880     9.0920 HW1           1 RES     
    8617 HW2         12.1110    28.8160     9.4010 HW2           1 RES     
    8618 OW          16.3980     6.9670    22.8600 OW            1 RES     
    8619 HW1         16.7260     6.0300    22.7420 HW1           1 RES     
    8620 HW2         15.4360     7.0200    22.5900 HW2           1 RES     
    8621 OW          13.0650    42.1470    22.9930 OW            1 RES     
    8622 HW1         12.2840    41.5480    23.1680 HW1           1 RES     
    8623 HW2         13.8200    41.6100    22.6160 HW2           1 RES     
    8624 OW           4.5370    14.3510    19.8040 OW            1 RES     
    8625 HW1          4.0090    14.6120    20.6120 HW1           1 RES     
    8626 HW2          4.9720    15.1620    19.4130 HW2           1 RES     
    8627 OW          17.6390    42.3110    22.6350 OW            1 RES     
    8628 HW1         17.6590    43.3040    22.7470 HW1           1 RES     
    8629 HW2         17.7530    41.8730    23.5270 HW2           1 RES     
    8630 OW          33.1430    29.2340     7.6500 OW            1 RES     
    8631 HW1         34.0740    29.4240     7.9600 HW1           1 RES     
    8632 HW2         32.6330    30.0920     7.5790 HW2           1 RES     
    8633 OW          24.2570    34.8070    15.4280 OW            1 RES     
    8634 HW1         25.1200    35.2840    15.5900 HW1           1 RES     
    8635 HW2         24.0550    34.8040    14.4490 HW2           1 RES     
    8636 OW          52.8810    23.4390    17.0620 OW            1 RES     
    8637 HW1         51.9800    23.6790    16.7020 HW1           1 RES     
    8638 HW2         53.3720    24.2720    17.3160 HW2           1 RES     
    8639 OW          29.3040    25.4750    18.7850 OW            1 RES     
    8640 HW1         29.7030    25.4950    17.8690 HW1           1 RES     
    8641 HW2         28.8100    24.6150    18.9150 HW2           1 RES     
    8642 OW          30.8450    40.4460     3.1940 OW            1 RES     
    8643 HW1         30.4760    41.2360     2.7050 HW1           1 RES     
    8644 HW2         31.8440    40.4660     3.1540 HW2           1 RES     
    8645 OW          10.2620    15.5640    18.6530 OW            1 RES     
    8646 HW1          9.7440    15.0100    18.0020 HW1           1 RES     
    8647 HW2          9.6290    16.1020    19.2110 HW2           1 RES     
    8648 OW           0.9330    25.9960    10.1270 OW            1 RES     
    8649 HW1          1.5450    25.2110    10.2110 HW1           1 RES     
    8650 HW2          1.4580    26.8410    10.2350 HW2           1 RES     
    8651 OW          45.0320    34.8720     6.5880 OW            1 RES     
    8652 HW1         45.9730    34.6130     6.3740 HW1           1 RES     
    8653 HW2         44.5720    34.1100     7.0440 HW2           1 RES     
    8654 OW          36.4330     9.3740    23.5680 OW            1 RES     
    8655 HW1         37.2510     9.0930    23.0670 HW1           1 RES     
    8656 HW2         36.2400     8.7110    24.2910 HW2           1 RES     
    8657 OW          53.8410    27.6380     1.8050 OW            1 RES     
    8658 HW1         53.3010    27.5860     2.6440 HW1           1 RES     
    8659 HW2         54.7230    27.1880     1.9460 HW2           1 RES     
    8660 OW          12.8840    46.0780    11.8340 OW            1 RES     
    8661 HW1         11.8880    46.0790    11.9110 HW1           1 RES     
    8662 HW2         13.2160    47.0200    11.7750 HW2           1 RES     
    8663 OW          55.7950    35.4160     4.1090 OW            1 RES     
    8664 HW1         55.3250    35.0510     3.3060 HW1           1 RES     
    8665 HW2         55.1350    35.5580     4.8470 HW2           1 RES     
    8666 OW          43.9390    44.7150     2.9600 OW            1 RES     
    8667 HW1         44.8510    44.3120     2.8940 HW1           1 RES     
    8668 HW2         43.2680    44.0920     2.5570 HW2           1 RES     
    8669 OW           8.6930    38.4810     0.7740 OW            1 RES     
    8670 HW1          8.1160    39.1650     1.2180 HW1           1 RES     
    8671 HW2          8.1340    37.9180     0.1650 HW2           1 RES     
    8672 OW          27.5650     4.0880     1.9640 OW            1 RES     
    8673 HW1         27.7370     4.9150     2.4980 HW1           1 RES     
    8674 HW2         28.4310     3.7330     1.6100 HW2           1 RES     
    8675 OW          43.5610    37.4210     6.4800 OW            1 RES     
    8676 HW1         44.3030    38.0850     6.3970 HW1           1 RES     
    8677 HW2         43.6650    36.7150     5.7800 HW2           1 RES     
    8678 OW          39.5790     4.6670    11.8350 OW            1 RES     
    8679 HW1         39.1470     5.2810    12.4950 HW1           1 RES     
    8680 HW2         38.8780     4.2640    11.2470 HW2           1 RES     
    8681 OW          41.3610    23.7900    12.0610 OW            1 RES     
    8682 HW1         41.2770    24.5350    12.7210 HW1           1 RES     
    8683 HW2         42.2730    23.8090    11.6500 HW2           1 RES     
    8684 OW          45.6290    32.3560    11.5460 OW            1 RES     
    8685 HW1         44.9070    32.1430    12.2030 HW1           1 RES     
    8686 HW2         45.5810    31.7160    10.7790 HW2           1 RES     
    8687 OW          18.8070    17.4360    11.9230 OW            1 RES     
    8688 HW1         19.2240    16.5310    11.8440 HW1           1 RES     
    8689 HW2         17.8470    17.3390    12.1850 HW2           1 RES     
    8690 OW          45.2190    40.7390    16.6760 OW            1 RES     
    8691 HW1         45.8060    40.8480    17.4770 HW1           1 RES     
    8692 HW2         44.7050    41.5830    16.5220 HW2           1 RES     
    8693 OW          54.9850    37.5200     2.1430 OW            1 RES     
    8694 HW1         55.7380    37.9670     1.6610 HW1           1 RES     
    8695 HW2         54.1840    37.4800     1.5460 HW2           1 RES     
    8696 OW          24.2870    37.4680    17.3070 OW            1 RES     
    8697 HW1         23.5720    37.3540    17.9960 HW1           1 RES     
    8698 HW2         25.1610    37.6500    17.7600 HW2           1 RES     
    8699 OW          62.0130     7.0340    18.3270 OW            1 RES     
    8700 HW1         61.0980     7.4340    18.3040 HW1           1 RES     
    8701 HW2         61.9410     6.0360    18.3580 HW2           1 RES     
    8702 OW          24.5300    13.3500    12.3610 OW            1 RES     
    8703 HW1         23.7420    13.9380    12.1820 HW1           1 RES     
    8704 HW2         24.2390    12.3930    12.3610 HW2           1 RES     
    8705 OW          13.6260    15.9130    13.4570 OW            1 RES     
    8706 HW1         13.9350    15.7240    12.5260 HW1           1 RES     
    8707 HW2         13.8920    15.1600    14.0580 HW2           1 RES     
    8708 OW          12.0170    27.0730    14.4080 OW            1 RES     
    8709 HW1         12.7580    27.6070    14.0010 HW1           1 RES     
    8710 HW2         12.1110    27.0760    15.4030 HW2           1 RES     
    8711 OW          43.5610     0.1390    21.9170 OW            1 RES     
    8712 HW1         42.6110     0.0170    22.2010 HW1           1 RES     
    8713 HW2         43.5870     0.5360    20.9990 HW2           1 RES     
    8714 OW          26.9600    24.1900     4.2340 OW            1 RES     
    8715 HW1         27.6060    23.4270     4.2100 HW1           1 RES     
    8716 HW2         27.4630    25.0540     4.2440 HW2           1 RES     
    8717 OW          42.3770    35.5320     7.7140 OW            1 RES     
    8718 HW1         42.1350    36.1480     8.4630 HW1           1 RES     
    8719 HW2         41.5630    35.3370     7.1660 HW2           1 RES     
    8720 OW           7.4120    12.9570     6.5890 OW            1 RES     
    8721 HW1          8.2620    13.2530     6.1550 HW1           1 RES     
    8722 HW2          7.6210    12.3280     7.3390 HW2           1 RES     
    8723 OW           6.3440    16.1630    14.1770 OW            1 RES     
    8724 HW1          5.5800    15.6960    13.7330 HW1           1 RES     
    8725 HW2          6.0340    16.5660    15.0380 HW2           1 RES     
    8726 OW          12.3710    23.4540     7.0380 OW            1 RES     
    8727 HW1         13.0070    24.0330     6.5270 HW1           1 RES     
    8728 HW2         11.6060    23.1970     6.4470 HW2           1 RES     
    8729 OW          36.1060    45.7000     6.6600 OW            1 RES     
    8730 HW1         36.2530    45.9920     7.6040 HW1           1 RES     
    8731 HW2         35.1710    45.3580     6.5580 HW2           1 RES     
    8732 OW           1.1090    25.6240     2.0380 OW            1 RES     
    8733 HW1          0.1170    25.5260     2.1130 HW1           1 RES     
    8734 HW2          1.5180    24.7330     1.8390 HW2           1 RES     
    8735 OW          17.0330    32.1800    11.4680 OW            1 RES     
    8736 HW1         17.4860    32.9210    11.9620 HW1           1 RES     
    8737 HW2         17.7130    31.6570    10.9540 HW2           1 RES     
    8738 OW           1.7860    42.9640    13.4090 OW            1 RES     
    8739 HW1          2.4580    42.2340    13.2880 HW1           1 RES     
    8740 HW2          0.9140    42.5710    13.7020 HW2           1 RES     
    8741 OW          37.8480    18.4220    24.5380 OW            1 RES     
    8742 HW1         38.2440    17.7010    25.1060 HW1           1 RES     
    8743 HW2         38.4890    18.6620    23.8090 HW2           1 RES     
    8744 OW          52.5750    32.8310     5.1660 OW            1 RES     
    8745 HW1         52.0660    33.3390     5.8600 HW1           1 RES     
    8746 HW2         52.9340    31.9870     5.5670 HW2           1 RES     
    8747 OW          16.5770    20.7480    23.2070 OW            1 RES     
    8748 HW1         17.3260    20.4370    23.7910 HW1           1 RES     
    8749 HW2         15.9730    21.3490    23.7310 HW2           1 RES     
    8750 OW          33.0010    22.1390    15.1220 OW            1 RES     
    8751 HW1         33.3170    23.0730    14.9630 HW1           1 RES     
    8752 HW2         33.7900    21.5290    15.2070 HW2           1 RES     
    8753 OW          30.7330    38.0760     0.1750 OW            1 RES     
    8754 HW1         29.7370    38.1370     0.2190 HW1           1 RES     
    8755 HW2         31.0920    37.8180     1.0720 HW2           1 RES     
    8756 OW          40.5950    38.5760     5.0950 OW            1 RES     
    8757 HW1         41.4930    38.9940     5.2270 HW1           1 RES     
    8758 HW2         39.8820    39.2520     5.2820 HW2           1 RES     
    8759 OW          11.4850     5.7530    21.1060 OW            1 RES     
    8760 HW1         11.1960     5.7410    22.0630 HW1           1 RES     
    8761 HW2         11.0500     6.5200    20.6350 HW2           1 RES     
    8762 OW          42.5320    28.4280     3.2060 OW            1 RES     
    8763 HW1         43.2840    28.9330     2.7840 HW1           1 RES     
    8764 HW2         42.0400    27.9140     2.5020 HW2           1 RES     
    8765 OW          40.5110     9.6430     8.4530 OW            1 RES     
    8766 HW1         40.6090     8.6500     8.5150 HW1           1 RES     
    8767 HW2         41.3760    10.0800     8.6990 HW2           1 RES     
    8768 OW          25.9560    38.7510    10.6900 OW            1 RES     
    8769 HW1         25.4410    39.0860    11.4780 HW1           1 RES     
    8770 HW2         25.4030    38.0870    10.1860 HW2           1 RES     
    8771 OW          20.7380    19.2310    15.1910 OW            1 RES     
    8772 HW1         21.0090    18.3260    15.5160 HW1           1 RES     
    8773 HW2         21.1030    19.3790    14.2720 HW2           1 RES     
    8774 OW          31.9390    16.2540    21.0560 OW            1 RES     
    8775 HW1         32.8120    16.7130    21.2170 HW1           1 RES     
    8776 HW2         31.2880    16.5140    21.7700 HW2           1 RES     
    8777 OW          25.3250    41.7340     9.5360 OW            1 RES     
    8778 HW1         25.5360    40.7570     9.5250 HW1           1 RES     
    8779 HW2         26.1750    42.2600     9.5400 HW2           1 RES     
    8780 OW          57.7430    24.1350     5.2370 OW            1 RES     
    8781 HW1         57.6870    24.9950     4.7320 HW1           1 RES     
    8782 HW2         57.1740    24.1920     6.0580 HW2           1 RES     
    8783 OW          10.7210    22.9600    11.5260 OW            1 RES     
    8784 HW1         10.5300    23.9390    11.4550 HW1           1 RES     
    8785 HW2         11.6900    22.8230    11.7320 HW2           1 RES     
    8786 OW          60.1010    27.3530    22.1320 OW            1 RES     
    8787 HW1         60.5000    27.9460    21.4330 HW1           1 RES     
    8788 HW2         60.4530    27.6140    23.0310 HW2           1 RES     
    8789 OW          25.8340     4.4880    18.3390 OW            1 RES     
    8790 HW1         25.9070     3.7410    18.9990 HW1           1 RES     
    8791 HW2         26.4210     5.2450    18.6260 HW2           1 RES     
    8792 OW          46.9830    42.8520     4.5140 OW            1 RES     
    8793 HW1         46.0130    42.6680     4.6670 HW1           1 RES     
    8794 HW2         47.5020    42.0010     4.5950 HW2           1 RES     
    8795 OW          25.8260    40.4790     6.2410 OW            1 RES     
    8796 HW1         25.5920    40.0830     7.1290 HW1           1 RES     
    8797 HW2         26.2330    39.7750     5.6590 HW2           1 RES     
    8798 OW          26.5220     1.4670    22.5370 OW            1 RES     
    8799 HW1         25.9020     1.1220    23.2410 HW1           1 RES     
    8800 HW2         27.2820     1.9520    22.9690 HW2           1 RES     
    8801 OW           6.6500    25.7410    21.4580 OW            1 RES     
    8802 HW1          6.8030    26.5240    22.0590 HW1           1 RES     
    8803 HW2          7.5200    25.4520    21.0590 HW2           1 RES     
    8804 OW          19.2440     3.2340    11.5630 OW            1 RES     
    8805 HW1         19.2110     4.1870    11.2620 HW1           1 RES     
    8806 HW2         20.1960     2.9630    11.7090 HW2           1 RES     
    8807 OW           7.1970    19.5540     5.3480 OW            1 RES     
    8808 HW1          6.6180    19.6380     4.5390 HW1           1 RES     
    8809 HW2          7.0870    18.6430     5.7450 HW2           1 RES     
    8810 OW          20.2430    34.8760    10.4040 OW            1 RES     
    8811 HW1         20.9880    35.4780    10.6900 HW1           1 RES     
    8812 HW2         20.4910    33.9250    10.5900 HW2           1 RES     
    8813 OW          16.9950    47.3830     0.2740 OW            1 RES     
    8814 HW1         17.9680    47.2190     0.1180 HW1           1 RES     
    8815 HW2         16.7870    48.3460     0.1040 HW2           1 RES     
    8816 OW          36.3870    30.9910    13.8580 OW            1 RES     
    8817 HW1         36.4420    31.9620    14.0880 HW1           1 RES     
    8818 HW2         37.2260    30.5300    14.1470 HW2           1 RES     
    8819 OW          41.7430    23.1950    20.5210 OW            1 RES     
    8820 HW1         40.8340    22.8190    20.6990 HW1           1 RES     
    8821 HW2         42.4220    22.4620    20.5660 HW2           1 RES     
    8822 OW          14.5820    21.2170     9.8580 OW            1 RES     
    8823 HW1         14.5270    21.4850     8.8970 HW1           1 RES     
    8824 HW2         15.2940    20.5240     9.9710 HW2           1 RES     
    8825 OW          61.3500     2.2660    10.4450 OW            1 RES     
    8826 HW1         60.8560     2.9420     9.9000 HW1           1 RES     
    8827 HW2         61.4760     2.6130    11.3740 HW2           1 RES     
    8828 OW          54.6520     9.1680    18.6950 OW            1 RES     
    8829 HW1         54.7420     8.4760    19.4100 HW1           1 RES     
    8830 HW2         53.8780     9.7660    18.9030 HW2           1 RES     
    8831 OW          57.1990    17.9550    21.9310 OW            1 RES     
    8832 HW1         58.0300    18.4760    21.7410 HW1           1 RES     
    8833 HW2         56.4820    18.5740    22.2510 HW2           1 RES     
    8834 OW           1.3390    46.6350    24.4780 OW            1 RES     
    8835 HW1          0.3860    46.6420    24.7760 HW1           1 RES     
    8836 HW2          1.3770    46.5350    23.4830 HW2           1 RES     
    8837 OW          16.6060    18.9560    20.4000 OW            1 RES     
    8838 HW1         17.3040    18.5120    19.8400 HW1           1 RES     
    8839 HW2         15.7730    19.0790    19.8600 HW2           1 RES     
    8840 OW          42.0410    33.5540     4.7000 OW            1 RES     
    8841 HW1         41.0630    33.7450     4.7790 HW1           1 RES     
    8842 HW2         42.1780    32.5750     4.5420 HW2           1 RES     
    8843 OW          18.2480    23.6650     2.6350 OW            1 RES     
    8844 HW1         19.2420    23.7510     2.5790 HW1           1 RES     
    8845 HW2         17.8320    24.5730     2.5960 HW2           1 RES     
    8846 OW          35.7080     9.0960    11.7050 OW            1 RES     
    8847 HW1         36.5900     8.6720    11.4990 HW1           1 RES     
    8848 HW2         34.9760     8.4290    11.5630 HW2           1 RES     
    8849 OW          51.2550     6.0400     0.0970 OW            1 RES     
    8850 HW1         51.1240     5.0540     0.0000 HW1           1 RES     
    8851 HW2         52.2330     6.2460     0.1260 HW2           1 RES     
    8852 OW          14.4210    31.8880    15.6300 OW            1 RES     
    8853 HW1         14.7830    31.3430    16.3850 HW1           1 RES     
    8854 HW2         13.5060    32.2190    15.8650 HW2           1 RES     
    8855 OW          47.0970    18.8870     8.3730 OW            1 RES     
    8856 HW1         46.2650    19.3830     8.1250 HW1           1 RES     
    8857 HW2         47.0320    17.9430     8.0480 HW2           1 RES     
    8858 OW          39.4300    31.1310    23.1440 OW            1 RES     
    8859 HW1         39.5530    32.1210    23.0840 HW1           1 RES     
    8860 HW2         38.4630    30.9230    23.2950 HW2           1 RES     
    8861 OW          61.9820    17.0890     1.0620 OW            1 RES     
    8862 HW1         62.6290    17.8500     1.0720 HW1           1 RES     
    8863 HW2         62.4230    16.2710     1.4320 HW2           1 RES     
    8864 OW          32.6760    24.3470     2.4230 OW            1 RES     
    8865 HW1         32.9410    24.2300     1.4660 HW1           1 RES     
    8866 HW2         33.0960    25.1780     2.7870 HW2           1 RES     
    8867 OW          10.2640    29.3000    22.6440 OW            1 RES     
    8868 HW1         10.9510    28.5770    22.7090 HW1           1 RES     
    8869 HW2          9.4390    29.0230    23.1380 HW2           1 RES     
    8870 OW          18.8280    43.5930    13.7130 OW            1 RES     
    8871 HW1         18.9560    44.5820    13.6380 HW1           1 RES     
    8872 HW2         19.6010    43.1240    13.2860 HW2           1 RES     
    8873 OW          50.4740    19.9020     3.2290 OW            1 RES     
    8874 HW1         51.3930    19.6640     2.9170 HW1           1 RES     
    8875 HW2         49.7970    19.5110     2.6060 HW2           1 RES     
    8876 OW          35.4680    13.7460     6.8450 OW            1 RES     
    8877 HW1         34.8100    13.1020     7.2340 HW1           1 RES     
    8878 HW2         36.3440    13.6560     7.3210 HW2           1 RES     
    8879 OW          29.7910    31.6540     5.3380 OW            1 RES     
    8880 HW1         29.5000    30.6980     5.3160 HW1           1 RES     
    8881 HW2         30.7900    31.6980     5.3520 HW2           1 RES     
    8882 OW           1.7100    22.9950    17.1160 OW            1 RES     
    8883 HW1          2.6820    23.0970    16.9100 HW1           1 RES     
    8884 HW2          1.1710    23.5010    16.4420 HW2           1 RES     
    8885 OW          34.5470    43.3010    11.4200 OW            1 RES     
    8886 HW1         35.1570    42.5740    11.1040 HW1           1 RES     
    8887 HW2         35.0860    44.0220    11.8560 HW2           1 RES     
    8888 OW          51.6740    18.9830    12.1890 OW            1 RES     
    8889 HW1         52.2170    18.1490    12.1000 HW1           1 RES     
    8890 HW2         52.2840    19.7680    12.3030 HW2           1 RES     
    8891 OW          38.9290     8.4830    20.4730 OW            1 RES     
    8892 HW1         38.7600     9.4140    20.7970 HW1           1 RES     
    8893 HW2         38.2010     7.8800    20.7980 HW2           1 RES     
    8894 OW           1.0620    47.2030     8.7290 OW            1 RES     
    8895 HW1          0.3720    47.6430     9.3010 HW1           1 RES     
    8896 HW2          1.9420    47.6610     8.8550 HW2           1 RES     
    8897 OW          45.6390    27.2240    21.9380 OW            1 RES     
    8898 HW1         46.5930    26.9360    21.8630 HW1           1 RES     
    8899 HW2         45.4430    27.4920    22.8810 HW2           1 RES     
    8900 OW          34.7660    14.0900    18.1780 OW            1 RES     
    8901 HW1         33.8300    14.4320    18.2480 HW1           1 RES     
    8902 HW2         34.9580    13.4810    18.9480 HW2           1 RES     
    8903 OW          27.7050    13.8100    25.0800 OW            1 RES     
    8904 HW1         28.0560    14.7450    25.0600 HW1           1 RES     
    8905 HW2         26.7840    13.7900    24.6910 HW2           1 RES     
    8906 OW          25.2860    45.3130    11.8720 OW            1 RES     
    8907 HW1         25.9540    46.0410    12.0170 HW1           1 RES     
    8908 HW2         25.7170    44.5570    11.3780 HW2           1 RES     
    8909 OW           8.9710     1.3410    12.1500 OW            1 RES     
    8910 HW1          8.3270     2.0820    11.9640 HW1           1 RES     
    8911 HW2          9.9030     1.7060    12.1700 HW2           1 RES     
    8912 OW          26.9650    40.1360    14.8540 OW            1 RES     
    8913 HW1         27.1080    39.4360    14.1550 HW1           1 RES     
    8914 HW2         25.9920    40.1890    15.0800 HW2           1 RES     
    8915 OW          51.4370    29.3910    15.5590 OW            1 RES     
    8916 HW1         52.1450    29.1770    14.8870 HW1           1 RES     
    8917 HW2         51.8210    29.3270    16.4810 HW2           1 RES     
    8918 OW          16.1530    37.1360    12.2810 OW            1 RES     
    8919 HW1         16.8430    36.5800    12.7440 HW1           1 RES     
    8920 HW2         16.2000    38.0760    12.6200 HW2           1 RES     
    8921 OW          54.4090    39.0230     9.2170 OW            1 RES     
    8922 HW1         54.5740    40.0080     9.2390 HW1           1 RES     
    8923 HW2         55.2840    38.5380     9.2340 HW2           1 RES     
    8924 OW           4.4410     0.4720     7.9770 OW            1 RES     
    8925 HW1          4.4460     0.0490     8.8820 HW1           1 RES     
    8926 HW2          5.0930     0.0000     7.3830 HW2           1 RES     
    8927 OW           6.8000    43.3720    16.3530 OW            1 RES     
    8928 HW1          7.3820    43.3530    17.1650 HW1           1 RES     
    8929 HW2          7.3720    43.3910    15.5330 HW2           1 RES     
    8930 OW          29.8310    45.4140    19.2040 OW            1 RES     
    8931 HW1         29.1390    44.8500    19.6510 HW1           1 RES     
    8932 HW2         30.1370    46.1290    19.8330 HW2           1 RES     
    8933 OW          16.5450    35.0260    18.7820 OW            1 RES     
    8934 HW1         16.6140    35.0180    17.7850 HW1           1 RES     
    8935 HW2         17.1110    34.2950    19.1630 HW2           1 RES     
    8936 OW          38.0560    44.5160     0.5900 OW            1 RES     
    8937 HW1         38.5020    43.6230     0.5420 HW1           1 RES     
    8938 HW2         38.7510    45.2340     0.6380 HW2           1 RES     
    8939 OW          17.9050    33.3640     6.2090 OW            1 RES     
    8940 HW1         17.2840    32.6190     5.9650 HW1           1 RES     
    8941 HW2         17.5450    34.2270     5.8550 HW2           1 RES     
    8942 OW          35.9770    32.5240    11.9570 OW            1 RES     
    8943 HW1         35.5500    33.0410    11.2170 HW1           1 RES     
    8944 HW2         36.0000    31.5530    11.7160 HW2           1 RES     
    8945 OW          12.7250    33.8810    20.0690 OW            1 RES     
    8946 HW1         11.7680    33.7190    20.3060 HW1           1 RES     
    8947 HW2         12.9770    33.3060    19.2900 HW2           1 RES     
    8948 OW          35.6420    10.0060     1.5580 OW            1 RES     
    8949 HW1         36.2860     9.8310     0.8140 HW1           1 RES     
    8950 HW2         34.8260     9.4400     1.4340 HW2           1 RES     
    8951 OW          44.8110    26.4810     2.6760 OW            1 RES     
    8952 HW1         44.7830    26.5930     3.6690 HW1           1 RES     
    8953 HW2         44.8000    27.3800     2.2380 HW2           1 RES     
    8954 OW          29.8800    48.8370     1.2080 OW            1 RES     
    8955 HW1         30.8050    48.7490     1.5780 HW1           1 RES     
    8956 HW2         29.8900    48.6210     0.2320 HW2           1 RES     
    8957 OW          46.6000    29.8080     5.2480 OW            1 RES     
    8958 HW1         45.9000    29.2950     5.7450 HW1           1 RES     
    8959 HW2         47.5060    29.4820     5.5170 HW2           1 RES     
    8960 OW          44.4660    17.3010     6.5340 OW            1 RES     
    8961 HW1         44.8390    16.6710     7.2130 HW1           1 RES     
    8962 HW2         43.7310    16.8490     6.0280 HW2           1 RES     
    8963 OW          18.7520    11.9730    21.5820 OW            1 RES     
    8964 HW1         17.8970    11.5380    21.3020 HW1           1 RES     
    8965 HW2         19.0750    12.5760    20.8520 HW2           1 RES     
    8966 OW          17.4490    44.1160     9.9310 OW            1 RES     
    8967 HW1         16.8690    44.7760     9.4550 HW1           1 RES     
    8968 HW2         17.0960    43.9680    10.8550 HW2           1 RES     
    8969 OW          22.4480    47.5370     9.9110 OW            1 RES     
    8970 HW1         21.8930    48.0680    10.5500 HW1           1 RES     
    8971 HW2         22.7730    48.1320     9.1760 HW2           1 RES     
    8972 OW          28.6170     5.2080     8.0820 OW            1 RES     
    8973 HW1         29.6060     5.1030     8.1750 HW1           1 RES     
    8974 HW2         28.3530     5.0560     7.1290 HW2           1 RES     
    8975 OW          40.8370    12.7250    15.8590 OW            1 RES     
    8976 HW1         41.6370    13.1520    16.2790 HW1           1 RES     
    8977 HW2         41.0000    11.7440    15.7520 HW2           1 RES     
    8978 OW          28.1310    39.7170     8.7940 OW            1 RES     
    8979 HW1         27.6300    39.4300     7.9780 HW1           1 RES     
    8980 HW2         27.9180    40.6730     8.9980 HW2           1 RES     
    8981 OW          17.9410     4.2050    13.7260 OW            1 RES     
    8982 HW1         17.8260     5.0670    13.2330 HW1           1 RES     
    8983 HW2         18.7180     4.2800    14.3520 HW2           1 RES     
    8984 OW          32.9580    21.2040    24.6490 OW            1 RES     
    8985 HW1         33.3880    20.3500    24.3570 HW1           1 RES     
    8986 HW2         31.9880    21.1900    24.4030 HW2           1 RES     
    8987 OW          39.6130    35.1130     9.5870 OW            1 RES     
    8988 HW1         39.4750    35.8360    10.2630 HW1           1 RES     
    8989 HW2         38.7260    34.8090     9.2370 HW2           1 RES     
    8990 OW           1.1990    39.3150    22.2550 OW            1 RES     
    8991 HW1          0.8080    39.6230    23.1220 HW1           1 RES     
    8992 HW2          0.6700    38.5410    21.9070 HW2           1 RES     
    8993 OW          49.0050    15.8670     5.9240 OW            1 RES     
    8994 HW1         48.3970    15.0750     5.8770 HW1           1 RES     
    8995 HW2         49.9560    15.5580     5.9220 HW2           1 RES     
    8996 OW          28.7780    30.7310    10.6960 OW            1 RES     
    8997 HW1         28.2540    31.5810    10.6790 HW1           1 RES     
    8998 HW2         29.7560    30.9410    10.6700 HW2           1 RES     
    8999 OW          42.8200    45.1420    11.2170 OW            1 RES     
    9000 HW1         43.4690    44.5970    10.6870 HW1           1 RES     
    9001 HW2         43.2540    45.9990    11.4950 HW2           1 RES     
    9002 OW           9.7980     0.8030    24.4190 OW            1 RES     
    9003 HW1          9.4260     1.3210    23.6490 HW1           1 RES     
    9004 HW2         10.6740     1.1990    24.6960 HW2           1 RES     
    9005 OW          58.2330     4.3570    13.5670 OW            1 RES     
    9006 HW1         59.0310     3.7560    13.6140 HW1           1 RES     
    9007 HW2         57.6560     4.2090    14.3710 HW2           1 RES     
    9008 OW          49.7090     4.1060     9.1250 OW            1 RES     
    9009 HW1         49.6410     5.1030     9.1080 HW1           1 RES     
    9010 HW2         48.9110     3.7250     9.5930 HW2           1 RES     
    9011 OW          40.4160    39.5850    21.6700 OW            1 RES     
    9012 HW1         41.1120    38.9740    21.2930 HW1           1 RES     
    9013 HW2         39.5120    39.1740    21.5510 HW2           1 RES     
    9014 OW          47.5370    19.9140    16.5570 OW            1 RES     
    9015 HW1         47.8600    20.8530    16.6690 HW1           1 RES     
    9016 HW2         46.5410    19.8900    16.6410 HW2           1 RES     
    9017 OW           5.0350    23.3860    15.6440 OW            1 RES     
    9018 HW1          6.0170    23.5220    15.5220 HW1           1 RES     
    9019 HW2          4.5470    24.2160    15.3750 HW2           1 RES     
    9020 OW          44.3730    36.0830     9.5030 OW            1 RES     
    9021 HW1         44.6950    35.1370     9.5080 HW1           1 RES     
    9022 HW2         45.1420    36.6990     9.6800 HW2           1 RES     
    9023 OW          57.8840    33.5320     5.8480 OW            1 RES     
    9024 HW1         57.2110    33.8970     5.2050 HW1           1 RES     
    9025 HW2         58.7940    33.8660     5.6050 HW2           1 RES     
    9026 OW           5.9870    14.6070     8.3110 OW            1 RES     
    9027 HW1          5.5330    14.2470     7.4970 HW1           1 RES     
    9028 HW2          6.5990    13.9110     8.6870 HW2           1 RES     
    9029 OW          53.5000     2.5050    20.9420 OW            1 RES     
    9030 HW1         54.1280     1.7440    21.0990 HW1           1 RES     
    9031 HW2         52.5850     2.1490    20.7490 HW2           1 RES     
    9032 OW          17.5280    36.6660     0.8230 OW            1 RES     
    9033 HW1         17.8190    37.6150     0.7100 HW1           1 RES     
    9034 HW2         17.8960    36.1120     0.0760 HW2           1 RES     
    9035 OW          54.5410    46.7080    21.9510 OW            1 RES     
    9036 HW1         54.1650    47.6190    22.1200 HW1           1 RES     
    9037 HW2         55.2670    46.5190    22.6130 HW2           1 RES     
    9038 OW          20.1490     6.9860    14.3490 OW            1 RES     
    9039 HW1         20.5180     7.1070    15.2700 HW1           1 RES     
    9040 HW2         20.1650     6.0160    14.1070 HW2           1 RES     
    9041 OW          36.1210    22.2990    23.1620 OW            1 RES     
    9042 HW1         36.5780    22.6190    23.9920 HW1           1 RES     
    9043 HW2         36.7960    21.9050    22.5390 HW2           1 RES     
    9044 OW          53.4770     1.7070    15.8000 OW            1 RES     
    9045 HW1         53.7510     0.8120    16.1490 HW1           1 RES     
    9046 HW2         54.2740     2.1770    15.4220 HW2           1 RES     
    9047 OW          23.0570    29.8310    24.6060 OW            1 RES     
    9048 HW1         23.9850    29.9350    24.9610 HW1           1 RES     
    9049 HW2         23.0910    29.3920    23.7080 HW2           1 RES     
    9050 OW          54.7420     2.9000    23.2670 OW            1 RES     
    9051 HW1         54.7070     2.3550    24.1040 HW1           1 RES     
    9052 HW2         55.4630     2.5480    22.6690 HW2           1 RES     
    9053 OW          14.9860     9.4530    20.3880 OW            1 RES     
    9054 HW1         14.8560     8.5290    20.7470 HW1           1 RES     
    9055 HW2         15.6830     9.9260    20.9260 HW2           1 RES     
    9056 OW          44.1860    20.2880    17.4630 OW            1 RES     
    9057 HW1         43.7540    19.3980    17.3200 HW1           1 RES     
    9058 HW2         43.4830    21.0000    17.4840 HW2           1 RES     
    9059 OW           6.1630    23.2670     9.2930 OW            1 RES     
    9060 HW1          5.2920    22.8590     9.0210 HW1           1 RES     
    9061 HW2          6.4550    22.8790    10.1670 HW2           1 RES     
    9062 OW           0.1200    34.5480     8.0990 OW            1 RES     
    9063 HW1          0.2020    34.7100     9.0810 HW1           1 RES     
    9064 HW2          0.8670    35.0090     7.6200 HW2           1 RES     
    9065 OW          27.3750    43.6720    21.9740 OW            1 RES     
    9066 HW1         28.2760    43.3070    22.2090 HW1           1 RES     
    9067 HW2         26.6830    43.2600    22.5660 HW2           1 RES     
    9068 OW           6.2130    21.8500     6.4260 OW            1 RES     
    9069 HW1          5.3400    22.1430     6.8140 HW1           1 RES     
    9070 HW2          6.8740    21.7070     7.1630 HW2           1 RES     
    9071 OW          57.4170     9.5650    12.4330 OW            1 RES     
    9072 HW1         56.5020     9.7630    12.7820 HW1           1 RES     
    9073 HW2         58.0650    10.2350    12.7950 HW2           1 RES     
    9074 OW          55.2510    18.5520     4.5720 OW            1 RES     
    9075 HW1         54.4740    17.9440     4.7320 HW1           1 RES     
    9076 HW2         55.8870    18.1200     3.9320 HW2           1 RES     
    9077 OW          59.8800    33.3160     3.2720 OW            1 RES     
    9078 HW1         60.6860    32.9890     2.7800 HW1           1 RES     
    9079 HW2         59.3510    32.5340     3.6030 HW2           1 RES     
    9080 OW          14.6180    12.4890     4.7670 OW            1 RES     
    9081 HW1         14.4080    12.8910     3.8760 HW1           1 RES     
    9082 HW2         14.3730    11.5190     4.7610 HW2           1 RES     
    9083 OW           7.9010    24.4410     6.3470 OW            1 RES     
    9084 HW1          6.9190    24.6140     6.4110 HW1           1 RES     
    9085 HW2          8.0600    23.4610     6.2280 HW2           1 RES     
    9086 OW          45.1430    38.8770    11.2540 OW            1 RES     
    9087 HW1         45.4720    39.7970    11.4650 HW1           1 RES     
    9088 HW2         45.6500    38.2080    11.7970 HW2           1 RES     
    9089 OW          27.4240    34.6930     2.9890 OW            1 RES     
    9090 HW1         26.5980    34.8460     3.5300 HW1           1 RES     
    9091 HW2         27.7790    33.7760     3.1740 HW2           1 RES     
    9092 OW          47.4960     3.5910     3.3280 OW            1 RES     
    9093 HW1         48.4540     3.3210     3.4130 HW1           1 RES     
    9094 HW2         47.1610     3.9170     4.2120 HW2           1 RES     
    9095 OW          56.9560    44.5300    23.1220 OW            1 RES     
    9096 HW1         56.0490    44.4480    23.5350 HW1           1 RES     
    9097 HW2         57.2810    45.4710    23.2150 HW2           1 RES     
    9098 OW          32.8550    43.4450     3.6000 OW            1 RES     
    9099 HW1         33.0560    43.8900     4.4720 HW1           1 RES     
    9100 HW2         32.8500    42.4530     3.7250 HW2           1 RES     
    9101 OW          32.3610     6.5000     5.3160 OW            1 RES     
    9102 HW1         32.7040     7.0630     6.0670 HW1           1 RES     
    9103 HW2         31.4040     6.2640     5.4860 HW2           1 RES     
    9104 OW          57.9870    20.4200     8.7080 OW            1 RES     
    9105 HW1         57.8530    21.4070     8.7870 HW1           1 RES     
    9106 HW2         58.9650    20.2180     8.6630 HW2           1 RES     
    9107 OW           5.0310    19.7790     8.6320 OW            1 RES     
    9108 HW1          5.9790    19.7430     8.3170 HW1           1 RES     
    9109 HW2          4.5050    20.3870     8.0360 HW2           1 RES     
    9110 OW           0.1710    26.6000    13.2680 OW            1 RES     
    9111 HW1          1.0060    26.7110    12.7290 HW1           1 RES     
    9112 HW2          0.0000    25.6270    13.4220 HW2           1 RES     
    9113 OW          29.7840    10.4720    24.2540 OW            1 RES     
    9114 HW1         30.3890    10.8960    24.9280 HW1           1 RES     
    9115 HW2         29.5440     9.5490    24.5550 HW2           1 RES     
    9116 OW          37.4260     3.0870    15.7450 OW            1 RES     
    9117 HW1         37.3230     2.3600    16.4230 HW1           1 RES     
    9118 HW2         37.6480     2.6850    14.8560 HW2           1 RES     
    9119 OW          36.1620    16.7590    17.1320 OW            1 RES     
    9120 HW1         36.8660    17.4670    17.1840 HW1           1 RES     
    9121 HW2         36.5940    15.8650    17.0180 HW2           1 RES     
    9122 OW          24.6010     6.9110    11.9010 OW            1 RES     
    9123 HW1         24.8360     5.9400    11.9480 HW1           1 RES     
    9124 HW2         24.9050     7.2860    11.0240 HW2           1 RES     
    9125 OW           4.5010    42.5540     0.6750 OW            1 RES     
    9126 HW1          5.3840    43.0230     0.6600 HW1           1 RES     
    9127 HW2          3.7760    43.2140     0.8720 HW2           1 RES     
    9128 OW           5.6170    38.6980     2.6780 OW            1 RES     
    9129 HW1          6.1700    39.3440     3.2040 HW1           1 RES     
    9130 HW2          5.5040    37.8530     3.2000 HW2           1 RES     
    9131 OW          23.2580    23.9290    15.1990 OW            1 RES     
    9132 HW1         22.7710    23.0770    15.0070 HW1           1 RES     
    9133 HW2         24.1250    23.9370    14.7010 HW2           1 RES     
    9134 OW          27.6860    15.8200     5.2930 OW            1 RES     
    9135 HW1         27.6600    16.2910     6.1740 HW1           1 RES     
    9136 HW2         26.9050    16.1060     4.7380 HW2           1 RES     
    9137 OW          13.7170    32.3660     6.3870 OW            1 RES     
    9138 HW1         13.0000    32.9720     6.7310 HW1           1 RES     
    9139 HW2         14.1380    32.7740     5.5760 HW2           1 RES     
    9140 OW          36.0700    21.5000    17.1040 OW            1 RES     
    9141 HW1         35.5390    22.2870    16.7910 HW1           1 RES     
    9142 HW2         35.6940    21.1650    17.9680 HW2           1 RES     
    9143 OW          25.5420     2.7380    14.7130 OW            1 RES     
    9144 HW1         24.5460     2.7390    14.7910 HW1           1 RES     
    9145 HW2         25.8170     3.3080    13.9380 HW2           1 RES     
    9146 OW          33.5340     8.0760    21.2980 OW            1 RES     
    9147 HW1         34.4620     7.7810    21.5220 HW1           1 RES     
    9148 HW2         33.0590     7.3430    20.8120 HW2           1 RES     
    9149 OW          61.4010    21.0340    10.1180 OW            1 RES     
    9150 HW1         62.1890    20.4300    10.2290 HW1           1 RES     
    9151 HW2         60.7680    20.9000    10.8810 HW2           1 RES     
    9152 OW          57.0350    39.2700    11.4330 OW            1 RES     
    9153 HW1         57.6330    38.6800    11.9740 HW1           1 RES     
    9154 HW2         57.0520    38.9750    10.4770 HW2           1 RES     
    9155 OW          30.9050    17.1940    10.9840 OW            1 RES     
    9156 HW1         30.9810    16.5170    11.7160 HW1           1 RES     
    9157 HW2         29.9480    17.4670    10.8790 HW2           1 RES     
    9158 OW          44.7810    37.9850    15.2910 OW            1 RES     
    9159 HW1         45.6870    37.5640    15.3010 HW1           1 RES     
    9160 HW2         44.0810    37.2710    15.3020 HW2           1 RES     
    9161 OW          55.6510    25.7820     9.8940 OW            1 RES     
    9162 HW1         54.7920    25.4930    10.3160 HW1           1 RES     
    9163 HW2         55.8190    25.2370     9.0730 HW2           1 RES     
    9164 OW           3.2060    31.0960    15.3790 OW            1 RES     
    9165 HW1          2.7390    30.4230    15.9520 HW1           1 RES     
    9166 HW2          4.0630    30.7070    15.0390 HW2           1 RES     
    9167 OW          30.1640    23.9930    11.7260 OW            1 RES     
    9168 HW1         30.7300    23.6450    10.9800 HW1           1 RES     
    9169 HW2         29.8030    23.2270    12.2570 HW2           1 RES     
    9170 OW          14.9050    47.0180    22.1890 OW            1 RES     
    9171 HW1         14.2220    46.4850    22.6880 HW1           1 RES     
    9172 HW2         14.4620    47.5090    21.4390 HW2           1 RES     
    9173 OW          26.9080     7.1580    16.1220 OW            1 RES     
    9174 HW1         26.5150     6.4980    16.7620 HW1           1 RES     
    9175 HW2         26.9720     6.7440    15.2130 HW2           1 RES     
    9176 OW          48.3100    30.7810    10.2880 OW            1 RES     
    9177 HW1         47.5610    30.1230    10.3590 HW1           1 RES     
    9178 HW2         49.1210    30.3240     9.9200 HW2           1 RES     
    9179 OW          38.4140    45.1310    16.3750 OW            1 RES     
    9180 HW1         39.3480    45.4770    16.4570 HW1           1 RES     
    9181 HW2         37.8140    45.8630    16.0510 HW2           1 RES     
    9182 OW          38.0690     5.1690    16.0720 OW            1 RES     
    9183 HW1         38.6620     5.9710    16.1300 HW1           1 RES     
    9184 HW2         37.1190     5.4620    15.9590 HW2           1 RES     
    9185 OW           0.9030    30.6870    10.8250 OW            1 RES     
    9186 HW1          1.3630    30.8210     9.9480 HW1           1 RES     
    9187 HW2          0.0130    30.2570    10.6730 HW2           1 RES     
    9188 OW           3.3280    28.5580    10.0960 OW            1 RES     
    9189 HW1          2.7390    28.8430     9.3410 HW1           1 RES     
    9190 HW2          2.7880    28.4980    10.9360 HW2           1 RES     
    9191 OW          29.1180    28.2340     7.5500 OW            1 RES     
    9192 HW1         29.2100    28.9600     8.2310 HW1           1 RES     
    9193 HW2         28.7180    28.6100     6.7140 HW2           1 RES     
    9194 OW          35.6290    27.6660     0.3660 OW            1 RES     
    9195 HW1         34.7440    27.9650     0.0110 HW1           1 RES     
    9196 HW2         35.8170    26.7340     0.0550 HW2           1 RES     
    9197 OW          28.2840     5.2480    20.4730 OW            1 RES     
    9198 HW1         29.2320     4.9320    20.4730 HW1           1 RES     
    9199 HW2         27.6740     4.4730    20.6460 HW2           1 RES     
    9200 OW          46.0150     3.6840     9.4580 OW            1 RES     
    9201 HW1         45.7230     2.9200    10.0330 HW1           1 RES     
    9202 HW2         46.7720     3.3910     8.8730 HW2           1 RES     
    9203 OW          37.5390    22.8110     9.0740 OW            1 RES     
    9204 HW1         37.0140    21.9600     9.0740 HW1           1 RES     
    9205 HW2         36.9120    23.5900     9.0740 HW2           1 RES     
    9206 OW          19.1190    33.2250    22.4240 OW            1 RES     
    9207 HW1         19.0100    33.6270    21.5150 HW1           1 RES     
    9208 HW2         19.2870    32.2430    22.3370 HW2           1 RES     
    9209 OW          36.6590    31.6770     9.1500 OW            1 RES     
    9210 HW1         35.7220    32.0040     9.2660 HW1           1 RES     
    9211 HW2         37.0500    32.0730     8.3190 HW2           1 RES     
    9212 OW          36.1260    48.3500     3.6610 OW            1 RES     
    9213 HW1         37.0460    47.9620     3.6280 HW1           1 RES     
    9214 HW2         35.9920    48.8180     4.5340 HW2           1 RES     
    9215 OW          53.4250    44.7760     6.6270 OW            1 RES     
    9216 HW1         54.2960    44.6160     7.0890 HW1           1 RES     
    9217 HW2         53.0030    45.6080     6.9880 HW2           1 RES     
    9218 OW          53.4980    14.3430     2.5410 OW            1 RES     
    9219 HW1         53.0680    14.5490     1.6630 HW1           1 RES     
    9220 HW2         52.8860    14.6160     3.2840 HW2           1 RES     
    9221 OW          50.2470    30.4600    13.6220 OW            1 RES     
    9222 HW1         49.6800    30.8110    14.3650 HW1           1 RES     
    9223 HW2         49.9890    29.5140    13.4230 HW2           1 RES     
    9224 OW          48.2520    38.8980    15.9550 OW            1 RES     
    9225 HW1         48.5300    38.5590    15.0570 HW1           1 RES     
    9226 HW2         47.5260    39.5770    15.8450 HW2           1 RES     
    9227 OW          21.2070    33.3580    15.8310 OW            1 RES     
    9228 HW1         22.0120    32.9660    16.2740 HW1           1 RES     
    9229 HW2         20.7390    33.9700    16.4690 HW2           1 RES     
    9230 OW          36.3480    27.6110     9.1070 OW            1 RES     
    9231 HW1         36.1160    26.6400     9.1470 HW1           1 RES     
    9232 HW2         37.3280    27.7130     8.9360 HW2           1 RES     
    9233 OW          10.6630    31.7230    15.5220 OW            1 RES     
    9234 HW1         11.1990    31.0910    16.0810 HW1           1 RES     
    9235 HW2         10.1230    31.2060    14.8580 HW2           1 RES     
    9236 OW          24.0860    31.6450    10.3270 OW            1 RES     
    9237 HW1         23.9170    31.1650    11.1880 HW1           1 RES     
    9238 HW2         25.0670    31.6500    10.1350 HW2           1 RES     
    9239 OW          45.5300    32.7940    22.0000 OW            1 RES     
    9240 HW1         46.4000    32.5260    21.5860 HW1           1 RES     
    9241 HW2         45.5540    33.7680    22.2260 HW2           1 RES     
    9242 OW           6.1650    36.6780    18.8280 OW            1 RES     
    9243 HW1          5.4940    35.9440    18.9280 HW1           1 RES     
    9244 HW2          6.4460    37.0000    19.7320 HW2           1 RES     
    9245 OW          29.4540    31.4620    15.9160 OW            1 RES     
    9246 HW1         30.3580    31.2300    15.5610 HW1           1 RES     
    9247 HW2         29.1720    32.3520    15.5560 HW2           1 RES     
    9248 OW          26.1990    30.2880    14.7410 OW            1 RES     
    9249 HW1         26.2550    31.2850    14.7600 HW1           1 RES     
    9250 HW2         25.2390    30.0070    14.7480 HW2           1 RES     
    9251 OW          24.0730    47.0570    15.3490 OW            1 RES     
    9252 HW1         23.4250    46.4070    15.7430 HW1           1 RES     
    9253 HW2         25.0070    46.7280    15.4930 HW2           1 RES     
    9254 OW           6.0670    30.5370    16.9050 OW            1 RES     
    9255 HW1          6.0900    31.3070    16.2690 HW1           1 RES     
    9256 HW2          6.9990    30.3060    17.1840 HW2           1 RES     
    9257 OW          59.6110    25.7480    23.9950 OW            1 RES     
    9258 HW1         59.6790    26.2650    24.8480 HW1           1 RES     
    9259 HW2         60.5280    25.5080    23.6760 HW2           1 RES     
    9260 OW           9.9800    46.5460     6.9410 OW            1 RES     
    9261 HW1          8.9960    46.5180     6.7690 HW1           1 RES     
    9262 HW2         10.4290    45.8120     6.4290 HW2           1 RES     
    9263 OW          15.9530    42.7150    16.1500 OW            1 RES     
    9264 HW1         15.9400    43.7000    15.9780 HW1           1 RES     
    9265 HW2         16.8940    42.4170    16.3100 HW2           1 RES     
    9266 OW          52.0350    34.7620    21.0670 OW            1 RES     
    9267 HW1         51.2170    35.0840    20.5910 HW1           1 RES     
    9268 HW2         52.0820    35.1830    21.9730 HW2           1 RES     
    9269 OW          32.9860    26.9610    16.9370 OW            1 RES     
    9270 HW1         33.6760    27.6570    16.7410 HW1           1 RES     
    9271 HW2         32.1690    27.3980    17.3140 HW2           1 RES     
    9272 OW          46.4290    16.9050    12.7220 OW            1 RES     
    9273 HW1         46.1320    17.4920    11.9700 HW1           1 RES     
    9274 HW2         46.1740    17.3250    13.5940 HW2           1 RES     
    9275 OW          43.5840    16.5360     0.8110 OW            1 RES     
    9276 HW1         44.3280    16.3040     1.4370 HW1           1 RES     
    9277 HW2         43.6920    17.4810     0.5000 HW2           1 RES     
    9278 OW          42.5180    48.3260    19.7470 OW            1 RES     
    9279 HW1         42.8210    47.9250    20.6100 HW1           1 RES     
    9280 HW2         43.3030    48.7150    19.2650 HW2           1 RES     
    9281 OW          33.9460    18.5940    12.6880 OW            1 RES     
    9282 HW1         34.6570    19.2470    12.9490 HW1           1 RES     
    9283 HW2         33.8250    17.9230    13.4200 HW2           1 RES     
    9284 OW          12.2000    24.9040    14.8430 OW            1 RES     
    9285 HW1         13.0090    24.3260    14.9420 HW1           1 RES     
    9286 HW2         11.4550    24.5340    15.3970 HW2           1 RES     
    9287 OW          16.7110    24.3980     0.6180 OW            1 RES     
    9288 HW1         17.2180    25.2480     0.4820 HW1           1 RES     
    9289 HW2         15.9130    24.5740     1.1950 HW2           1 RES     
    9290 OW          40.5460    41.3030     1.6030 OW            1 RES     
    9291 HW1         39.9610    42.0180     1.9840 HW1           1 RES     
    9292 HW2         41.4850    41.6410     1.5340 HW2           1 RES     
    9293 OW          54.8800    41.7510    24.6700 OW            1 RES     
    9294 HW1         54.0730    42.1490    25.1040 HW1           1 RES     
    9295 HW2         55.5000    42.4820    24.3830 HW2           1 RES     
    9296 OW          43.8910    40.6170    21.2570 OW            1 RES     
    9297 HW1         43.1670    41.2090    21.6120 HW1           1 RES     
    9298 HW2         43.5210    39.7050    21.0830 HW2           1 RES     
    9299 OW           1.1240    10.7300    10.7650 OW            1 RES     
    9300 HW1          1.8290    10.2040    11.2390 HW1           1 RES     
    9301 HW2          1.3610    10.8090     9.7960 HW2           1 RES     
    9302 OW          44.9370    10.9730    19.4410 OW            1 RES     
    9303 HW1         44.3280    11.0980    18.6590 HW1           1 RES     
    9304 HW2         45.6170    11.7070    19.4560 HW2           1 RES     
    9305 OW           0.8400    13.0000    18.0090 OW            1 RES     
    9306 HW1          1.0840    13.4440    17.1470 HW1           1 RES     
    9307 HW2          0.0010    12.4710    17.8870 HW2           1 RES     
    9308 OW          18.2680    16.7320    24.2700 OW            1 RES     
    9309 HW1         17.8520    17.1180    25.0930 HW1           1 RES     
    9310 HW2         19.1390    17.1890    24.0900 HW2           1 RES     
    9311 OW          27.3840    41.3750    25.0650 OW            1 RES     
    9312 HW1         27.9870    42.1710    25.1040 HW1           1 RES     
    9313 HW2         26.4310    41.6790    25.0460 HW2           1 RES     
    9314 OW          54.9060    32.7910     0.9580 OW            1 RES     
    9315 HW1         54.3150    32.5590     0.1850 HW1           1 RES     
    9316 HW2         54.4050    33.3770     1.5960 HW2           1 RES     
    9317 OW           1.5240     8.6910    13.9760 OW            1 RES     
    9318 HW1          2.4090     8.2770    14.1870 HW1           1 RES     
    9319 HW2          0.8500     7.9710    13.8070 HW2           1 RES     
    9320 OW          38.1510    16.3810     5.3670 OW            1 RES     
    9321 HW1         39.0200    16.8740     5.3490 HW1           1 RES     
    9322 HW2         37.3950    17.0350     5.3590 HW2           1 RES     
    9323 OW          46.8350    17.5000     5.6500 OW            1 RES     
    9324 HW1         46.2420    18.2880     5.4890 HW1           1 RES     
    9325 HW2         47.7920    17.7860     5.5970 HW2           1 RES     
    9326 OW          10.8100     5.1200    14.5180 OW            1 RES     
    9327 HW1          9.8940     5.4360    14.2710 HW1           1 RES     
    9328 HW2         11.4580     5.8770    14.4330 HW2           1 RES     
    9329 OW          39.0560    20.8430    13.7200 OW            1 RES     
    9330 HW1         39.9540    21.1050    13.3680 HW1           1 RES     
    9331 HW2         39.1260    19.9650    14.1930 HW2           1 RES     
    9332 OW          14.0900    34.9550    12.1610 OW            1 RES     
    9333 HW1         13.9540    34.8630    13.1470 HW1           1 RES     
    9334 HW2         15.0210    35.2730    11.9810 HW2           1 RES     
    9335 OW           1.0530    40.9010     5.7120 OW            1 RES     
    9336 HW1          0.2270    40.8290     5.1550 HW1           1 RES     
    9337 HW2          0.9050    40.4450     6.5900 HW2           1 RES     
    9338 OW          15.6090    15.7090     0.1120 OW            1 RES     
    9339 HW1         16.4020    15.2140     0.4630 HW1           1 RES     
    9340 HW2         15.3960    16.4740     0.7200 HW2           1 RES     
    9341 OW           4.2660    15.0410     3.8910 OW            1 RES     
    9342 HW1          3.3820    14.9550     4.3490 HW1           1 RES     
    9343 HW2          4.4250    14.2360     3.3190 HW2           1 RES     
    9344 OW          52.8630     4.3910     1.9930 OW            1 RES     
    9345 HW1         52.9290     5.3010     2.4000 HW1           1 RES     
    9346 HW2         51.9830     3.9800     2.2350 HW2           1 RES     
    9347 OW          36.9690     7.3610    14.2000 OW            1 RES     
    9348 HW1         37.7330     6.7200    14.2590 HW1           1 RES     
    9349 HW2         36.1120     6.8760    14.3760 HW2           1 RES     
    9350 OW          50.8940    30.0080     7.0220 OW            1 RES     
    9351 HW1         50.9480    31.0030     6.9390 HW1           1 RES     
    9352 HW2         51.8010    29.6120     6.8750 HW2           1 RES     
    9353 OW           1.0110     4.7280    13.9400 OW            1 RES     
    9354 HW1          0.4310     5.5420    13.9680 HW1           1 RES     
    9355 HW2          1.9720     5.0040    13.9110 HW2           1 RES     
    9356 OW          27.3090    27.9590    13.4410 OW            1 RES     
    9357 HW1         27.8740    28.5110    12.8280 HW1           1 RES     
    9358 HW2         26.4260    28.4090    13.5770 HW2           1 RES     
    9359 OW          59.4390     9.5070     5.0830 OW            1 RES     
    9360 HW1         58.6000     9.1910     5.5250 HW1           1 RES     
    9361 HW2         59.2650    10.3750     4.6180 HW2           1 RES     
    9362 OW          24.8950     9.4680    11.8190 OW            1 RES     
    9363 HW1         24.8910     9.1980    12.7810 HW1           1 RES     
    9364 HW2         25.8170     9.7560    11.5580 HW2           1 RES     
    9365 OW          50.7970    24.6220    21.2600 OW            1 RES     
    9366 HW1         51.7400    24.8960    21.0790 HW1           1 RES     
    9367 HW2         50.4730    24.0310    20.5210 HW2           1 RES     
    9368 OW          45.6750     5.5750    21.9360 OW            1 RES     
    9369 HW1         46.0310     4.8860    22.5660 HW1           1 RES     
    9370 HW2         45.7780     6.4830    22.3420 HW2           1 RES     
    9371 OW          59.4080    40.8370    15.1910 OW            1 RES     
    9372 HW1         58.4540    40.5610    15.3070 HW1           1 RES     
    9373 HW2         60.0090    40.1150    15.5340 HW2           1 RES     
    9374 OW          12.1220    35.4960     0.2830 OW            1 RES     
    9375 HW1         11.2450    35.5250     0.7600 HW1           1 RES     
    9376 HW2         12.5950    36.3700     0.3980 HW2           1 RES     
    9377 OW          17.4080    21.2170     0.4910 OW            1 RES     
    9378 HW1         18.0310    20.8810     1.1970 HW1           1 RES     
    9379 HW2         17.5830    22.1870     0.3250 HW2           1 RES     
    9380 OW          40.5840    11.4160     0.2700 OW            1 RES     
    9381 HW1         41.4460    11.1660     0.7090 HW1           1 RES     
    9382 HW2         39.9490    11.7690     0.9580 HW2           1 RES     
    9383 OW          36.0250    40.5350    22.3320 OW            1 RES     
    9384 HW1         36.5850    40.5100    21.5050 HW1           1 RES     
    9385 HW2         35.0600    40.4430    22.0860 HW2           1 RES     
    9386 OW          48.6980    29.4230    16.6620 OW            1 RES     
    9387 HW1         48.7820    28.5170    17.0740 HW1           1 RES     
    9388 HW2         49.5300    29.9490    16.8370 HW2           1 RES     
    9389 OW          50.3090    19.4990     0.0440 OW            1 RES     
    9390 HW1         51.3050    19.4210     0.0380 HW1           1 RES     
    9391 HW2         49.9020    18.5870     0.0010 HW2           1 RES     
    9392 OW          57.0730    27.5680     7.7730 OW            1 RES     
    9393 HW1         56.9890    28.5630     7.7360 HW1           1 RES     
    9394 HW2         56.3290    27.1500     7.2510 HW2           1 RES     
    9395 OW          46.7380    37.4650    23.4930 OW            1 RES     
    9396 HW1         45.9490    38.0130    23.2170 HW1           1 RES     
    9397 HW2         47.1370    37.0250    22.6880 HW2           1 RES     
    9398 OW          60.6250    46.8110    17.1780 OW            1 RES     
    9399 HW1         60.4070    45.8390    17.0960 HW1           1 RES     
    9400 HW2         61.6130    46.9400    17.0960 HW2           1 RES     
    9401 OW          55.7500    30.3680     2.8810 OW            1 RES     
    9402 HW1         56.6240    30.8520     2.8770 HW1           1 RES     
    9403 HW2         55.0010    31.0310     2.8750 HW2           1 RES     
    9404 OW          33.2710    25.1570    10.6860 OW            1 RES     
    9405 HW1         33.1490    25.9750    10.1240 HW1           1 RES     
    9406 HW2         34.2470    24.9560    10.7760 HW2           1 RES     
    9407 OW           4.6300     5.0300    14.7770 OW            1 RES     
    9408 HW1          3.9270     4.3230    14.7040 HW1           1 RES     
    9409 HW2          4.9850     5.2440    13.8670 HW2           1 RES     
    9410 OW          20.4060    18.4080     2.6040 OW            1 RES     
    9411 HW1         20.1620    19.3750     2.6760 HW1           1 RES     
    9412 HW2         19.5950    17.8460     2.7680 HW2           1 RES     
    9413 OW           8.5880    26.8520     5.6970 OW            1 RES     
    9414 HW1          8.6330    27.4600     4.9060 HW1           1 RES     
    9415 HW2          9.1850    26.0640     5.5470 HW2           1 RES     
    9416 OW          34.0720    34.9590     6.1900 OW            1 RES     
    9417 HW1         34.9120    35.4870     6.0700 HW1           1 RES     
    9418 HW2         34.2870    33.9820     6.1740 HW2           1 RES     
    9419 OW          58.5180    12.3990    21.2750 OW            1 RES     
    9420 HW1         58.4940    12.5170    20.2830 HW1           1 RES     
    9421 HW2         58.3950    11.4320    21.4990 HW2           1 RES     
    9422 OW          39.9000    22.9120     3.9440 OW            1 RES     
    9423 HW1         40.8120    23.2620     3.7310 HW1           1 RES     
    9424 HW2         39.6700    22.1740     3.3100 HW2           1 RES     
    9425 OW          25.3140     1.1620    18.1830 OW            1 RES     
    9426 HW1         25.9490     0.9730    17.4350 HW1           1 RES     
    9427 HW2         25.4940     0.5330    18.9400 HW2           1 RES     
    9428 OW          46.6880    27.4160    17.4630 OW            1 RES     
    9429 HW1         46.9920    27.8570    18.3060 HW1           1 RES     
    9430 HW2         47.1840    26.5560    17.3390 HW2           1 RES     
    9431 OW          52.7570    29.5270     0.6030 OW            1 RES     
    9432 HW1         52.3290    30.4290     0.5550 HW1           1 RES     
    9433 HW2         52.0670    28.8210     0.4410 HW2           1 RES     
    9434 OW          27.5350    44.3260    25.0140 OW            1 RES     
    9435 HW1         27.8600    44.8780    24.2470 HW1           1 RES     
    9436 HW2         26.5440    44.4300    25.1040 HW2           1 RES     
    9437 OW           2.5780     8.9720     2.5390 OW            1 RES     
    9438 HW1          3.2520     8.2350     2.5010 HW1           1 RES     
    9439 HW2          2.5920     9.3920     3.4460 HW2           1 RES     
    9440 OW           3.2780    32.9930    18.7880 OW            1 RES     
    9441 HW1          2.4850    33.2780    18.2510 HW1           1 RES     
    9442 HW2          4.0010    33.6790    18.7060 HW2           1 RES     
    9443 OW          46.2390     0.1290     9.0010 OW            1 RES     
    9444 HW1         46.8730     0.8740     8.7970 HW1           1 RES     
    9445 HW2         45.5320     0.0890     8.2950 HW2           1 RES     
    9446 OW          26.3240    41.5770    11.8650 OW            1 RES     
    9447 HW1         25.3330    41.5090    11.7520 HW1           1 RES     
    9448 HW2         26.5750    41.2900    12.7900 HW2           1 RES     
    9449 OW          40.2760    40.2990     9.4880 OW            1 RES     
    9450 HW1         39.5470    39.6250     9.6010 HW1           1 RES     
    9451 HW2         40.5770    40.6180    10.3870 HW2           1 RES     
    9452 OW           3.4110    40.2240     1.0520 OW            1 RES     
    9453 HW1          4.2940    40.3290     0.5950 HW1           1 RES     
    9454 HW2          2.8290    41.0090     0.8390 HW2           1 RES     
    9455 OW          12.5770    29.8010    23.5720 OW            1 RES     
    9456 HW1         12.1630    30.5560    23.0650 HW1           1 RES     
    9457 HW2         12.9150    30.1340    24.4520 HW2           1 RES     
    9458 OW          14.7440    15.0120    24.9640 OW            1 RES     
    9459 HW1         13.8600    15.4230    24.7460 HW1           1 RES     
    9460 HW2         14.9030    14.2260    24.3660 HW2           1 RES     
    9461 OW          48.1390    38.2950     1.3050 OW            1 RES     
    9462 HW1         47.7890    37.8160     0.5010 HW1           1 RES     
    9463 HW2         47.4420    38.9240     1.6490 HW2           1 RES     
    9464 OW          31.3070    25.9000    20.4390 OW            1 RES     
    9465 HW1         31.3010    24.9450    20.7320 HW1           1 RES     
    9466 HW2         30.3860    26.2810    20.5220 HW2           1 RES     
    9467 OW           7.8980     4.7630     0.9050 OW            1 RES     
    9468 HW1          7.7780     4.2480     0.0570 HW1           1 RES     
    9469 HW2          7.5770     5.7010     0.7740 HW2           1 RES     
    9470 OW           7.6600     1.8830    14.8450 OW            1 RES     
    9471 HW1          7.9490     2.7920    15.1410 HW1           1 RES     
    9472 HW2          8.4420     1.3930    14.4570 HW2           1 RES     
    9473 OW           8.4720    23.7520    25.0630 OW            1 RES     
    9474 HW1          7.7890    24.4800    25.1070 HW1           1 RES     
    9475 HW2          9.3890    24.1540    25.0550 HW2           1 RES     
    9476 OW          42.0980    22.6030     0.7610 OW            1 RES     
    9477 HW1         41.2340    22.9210     1.1520 HW1           1 RES     
    9478 HW2         42.8140    23.2760     0.9420 HW2           1 RES     
    9479 OW          11.1000    16.7810    22.7630 OW            1 RES     
    9480 HW1         11.7010    17.5630    22.6050 HW1           1 RES     
    9481 HW2         10.2480    17.0940    23.1840 HW2           1 RES     
    9482 OW          10.0130    27.4130    11.2420 OW            1 RES     
    9483 HW1         10.4310    28.3190    11.1930 HW1           1 RES     
    9484 HW2          9.0260    27.5070    11.3710 HW2           1 RES     
    9485 OW          20.5830    42.5640    25.0500 OW            1 RES     
    9486 HW1         20.9500    41.6620    24.8270 HW1           1 RES     
    9487 HW2         19.5870    42.5510    24.9590 HW2           1 RES     
    9488 OW          24.7840    29.4040     0.1960 OW            1 RES     
    9489 HW1         24.7920    28.4240     0.0000 HW1           1 RES     
    9490 HW2         25.5770    29.6390     0.7580 HW2           1 RES     
    9491 OW          38.7060    11.6700     7.5970 OW            1 RES     
    9492 HW1         37.8500    12.0410     7.2380 HW1           1 RES     
    9493 HW2         38.8090    10.7210     7.2990 HW2           1 RES     
    9494 OW          57.0130    21.8940     5.4700 OW            1 RES     
    9495 HW1         56.9570    22.0500     4.4840 HW1           1 RES     
    9496 HW2         57.8190    21.3390     5.6760 HW2           1 RES     
    9497 OW           8.6100    30.0080    13.7780 OW            1 RES     
    9498 HW1          8.9170    29.2920    13.1530 HW1           1 RES     
    9499 HW2          8.1440    30.7260    13.2610 HW2           1 RES     
    9500 OW          39.5040    29.8280    20.0980 OW            1 RES     
    9501 HW1         39.3000    28.8560    20.2080 HW1           1 RES     
    9502 HW2         39.0200    30.3530    20.7990 HW2           1 RES     
    9503 OW          10.7080    35.7870    12.6140 OW            1 RES     
    9504 HW1         11.5040    35.2110    12.7960 HW1           1 RES     
    9505 HW2         10.9760    36.5520    12.0280 HW2           1 RES     
    9506 OW          46.0700    19.5390    10.5910 OW            1 RES     
    9507 HW1         45.1450    19.8570    10.3860 HW1           1 RES     
    9508 HW2         46.6900    20.3220    10.6390 HW2           1 RES     
    9509 OW          29.7810    45.2050    12.7820 OW            1 RES     
    9510 HW1         28.8290    44.9220    12.6760 HW1           1 RES     
    9511 HW2         29.8230    46.1970    12.9060 HW2           1 RES     
    9512 OW           1.3530    35.9500    21.9030 OW            1 RES     
    9513 HW1          1.2090    36.4550    21.0530 HW1           1 RES     
    9514 HW2          0.5040    35.9330    22.4300 HW2           1 RES     
    9515 OW          48.8150    35.5910    15.7530 OW            1 RES     
    9516 HW1         48.3340    34.8370    16.1990 HW1           1 RES     
    9517 HW2         48.1750    36.3400    15.5800 HW2           1 RES     
    9518 OW          38.3710    46.8400    21.0060 OW            1 RES     
    9519 HW1         37.9480    45.9420    20.8970 HW1           1 RES     
    9520 HW2         39.3650    46.7500    20.9500 HW2           1 RES     
    9521 OW          12.9350    11.1270    10.2180 OW            1 RES     
    9522 HW1         12.6170    11.8740     9.6350 HW1           1 RES     
    9523 HW2         12.7560    10.2520     9.7680 HW2           1 RES     
    9524 OW          35.9850    38.6310    15.6490 OW            1 RES     
    9525 HW1         36.9710    38.5770    15.7980 HW1           1 RES     
    9526 HW2         35.7070    39.5900    15.5910 HW2           1 RES     
    9527 OW          45.9790    18.1600    17.9130 OW            1 RES     
    9528 HW1         45.4300    17.3940    18.2440 HW1           1 RES     
    9529 HW2         46.8990    17.8390    17.6880 HW2           1 RES     
    9530 OW          26.7970    35.0870     0.7390 OW            1 RES     
    9531 HW1         26.0570    34.4170     0.7520 HW1           1 RES     
    9532 HW2         27.6780    34.6130     0.7410 HW2           1 RES     
    9533 OW          49.7950    10.8250     8.5890 OW            1 RES     
    9534 HW1         49.4000    10.6460     7.6890 HW1           1 RES     
    9535 HW2         49.5790    11.7610     8.8680 HW2           1 RES     
    9536 OW           1.8210    44.0750    22.8250 OW            1 RES     
    9537 HW1          2.5410    43.3920    22.7100 HW1           1 RES     
    9538 HW2          1.5870    44.4680    21.9350 HW2           1 RES     
    9539 OW          54.5540     4.4170     6.5570 OW            1 RES     
    9540 HW1         55.2210     3.9290     5.9950 HW1           1 RES     
    9541 HW2         54.5800     4.0600     7.4910 HW2           1 RES     
    9542 OW           9.5610    41.0660    11.0280 OW            1 RES     
    9543 HW1          9.6830    40.0750    11.0790 HW1           1 RES     
    9544 HW2          9.6560    41.4610    11.9420 HW2           1 RES     
    9545 OW          15.5560    40.5720    12.2670 OW            1 RES     
    9546 HW1         15.6680    41.3610    12.8710 HW1           1 RES     
    9547 HW2         16.4560    40.2350    11.9890 HW2           1 RES     
    9548 OW          45.2850    27.7630     7.8890 OW            1 RES     
    9549 HW1         46.0760    27.1890     8.0960 HW1           1 RES     
    9550 HW2         45.1280    28.4010     8.6440 HW2           1 RES     
    9551 OW          18.7460    28.5800    15.8600 OW            1 RES     
    9552 HW1         18.0370    27.8760    15.8570 HW1           1 RES     
    9553 HW2         18.3190    29.4850    15.8550 HW2           1 RES     
    9554 OW          61.5740    35.3780     1.1100 OW            1 RES     
    9555 HW1         61.9430    34.4820     0.8670 HW1           1 RES     
    9556 HW2         62.3260    36.0230     1.2480 HW2           1 RES     
    9557 OW           4.2820    26.6380     5.9480 OW            1 RES     
    9558 HW1          3.4820    26.0750     6.1520 HW1           1 RES     
    9559 HW2          4.1030    27.5840     6.2210 HW2           1 RES     
    9560 OW          53.6130    23.0720    11.4830 OW            1 RES     
    9561 HW1         54.0980    23.5200    12.2330 HW1           1 RES     
    9562 HW2         54.0800    23.2660    10.6200 HW2           1 RES     
    9563 OW          28.6800    44.1340     1.2780 OW            1 RES     
    9564 HW1         28.2750    43.6910     0.4790 HW1           1 RES     
    9565 HW2         28.5300    45.1220     1.2230 HW2           1 RES     
    9566 OW          59.6940    18.5100     5.8060 OW            1 RES     
    9567 HW1         58.8640    18.5300     6.3630 HW1           1 RES     
    9568 HW2         60.1450    19.4020     5.8470 HW2           1 RES     
    9569 OW          29.5540    28.9300    16.9760 OW            1 RES     
    9570 HW1         30.0580    29.7420    17.2660 HW1           1 RES     
    9571 HW2         29.2740    29.0340    16.0210 HW2           1 RES     
    9572 OW          12.7210    37.2170     9.4450 OW            1 RES     
    9573 HW1         11.7510    36.9790     9.4240 HW1           1 RES     
    9574 HW2         13.2530    36.4230     9.7420 HW2           1 RES     
    9575 OW          46.8300    45.6110     9.9440 OW            1 RES     
    9576 HW1         47.6210    45.0460    10.1770 HW1           1 RES     
    9577 HW2         47.0070    46.0960     9.0870 HW2           1 RES     
    9578 OW          51.8990     3.8470    17.5230 OW            1 RES     
    9579 HW1         51.7050     2.9120    17.2280 HW1           1 RES     
    9580 HW2         51.4290     4.0280    18.3870 HW2           1 RES     
    9581 OW          55.0490    15.5680     5.3730 OW            1 RES     
    9582 HW1         55.8890    15.0660     5.5750 HW1           1 RES     
    9583 HW2         54.3460    15.3250     6.0410 HW2           1 RES     
    9584 OW          54.3340    29.2390    18.1750 OW            1 RES     
    9585 HW1         55.2260    29.6820    18.0920 HW1           1 RES     
    9586 HW2         54.2580    28.5120    17.4920 HW2           1 RES     
    9587 OW          18.4450    32.4700     0.8080 OW            1 RES     
    9588 HW1         17.6290    33.0460     0.7770 HW1           1 RES     
    9589 HW2         19.1470    32.8530     0.2070 HW2           1 RES     
    9590 OW          28.2600    19.0260    15.6720 OW            1 RES     
    9591 HW1         28.2130    19.9620    15.3240 HW1           1 RES     
    9592 HW2         28.5690    19.0380    16.6230 HW2           1 RES     
    9593 OW          50.4350    42.5780    10.1190 OW            1 RES     
    9594 HW1         49.7750    43.0460     9.5320 HW1           1 RES     
    9595 HW2         51.2490    43.1490    10.2290 HW2           1 RES     
    9596 OW           1.3600    20.9100     5.8370 OW            1 RES     
    9597 HW1          1.3310    20.1200     6.4480 HW1           1 RES     
    9598 HW2          0.8870    21.6800     6.2640 HW2           1 RES     
    9599 OW          36.7250    19.8560    15.1640 OW            1 RES     
    9600 HW1         36.5350    19.9220    14.1850 HW1           1 RES     
    9601 HW2         35.8900    19.5960    15.6490 HW2           1 RES     
    9602 OW          61.8970    25.4870     5.9740 OW            1 RES     
    9603 HW1         61.4650    26.2970     5.5810 HW1           1 RES     
    9604 HW2         61.3590    24.6760     5.7430 HW2           1 RES     
    9605 OW          10.6020     4.6930     7.3220 OW            1 RES     
    9606 HW1         11.0700     5.5440     7.5600 HW1           1 RES     
    9607 HW2         11.2750     4.0110     7.0350 HW2           1 RES     
    9608 OW          10.0180    33.2290    17.0960 OW            1 RES     
    9609 HW1         10.9520    33.4700    16.8340 HW1           1 RES     
    9610 HW2         10.0350    32.4190    17.6830 HW2           1 RES     
    9611 OW           5.5530    43.0300    22.2470 OW            1 RES     
    9612 HW1          4.8100    42.8860    22.9010 HW1           1 RES     
    9613 HW2          5.4710    42.3700    21.5000 HW2           1 RES     
    9614 OW          54.4020    20.4520     5.7150 OW            1 RES     
    9615 HW1         55.1340    20.8200     6.2870 HW1           1 RES     
    9616 HW2         53.9930    21.1910     5.1790 HW2           1 RES     
    9617 OW          45.9430    22.1720     8.6180 OW            1 RES     
    9618 HW1         45.1130    22.6920     8.8160 HW1           1 RES     
    9619 HW2         46.7240    22.7940     8.5680 HW2           1 RES     
    9620 OW          30.0590    22.7860    16.6590 OW            1 RES     
    9621 HW1         31.0050    22.8660    16.9700 HW1           1 RES     
    9622 HW2         29.4620    23.3070    17.2680 HW2           1 RES     
    9623 OW          35.3120    13.0650    15.1310 OW            1 RES     
    9624 HW1         35.9590    13.8270    15.0880 HW1           1 RES     
    9625 HW2         34.3810    13.4220    15.2030 HW2           1 RES     
    9626 OW          14.3120    28.2110    15.7960 OW            1 RES     
    9627 HW1         13.7560    28.9950    15.5220 HW1           1 RES     
    9628 HW2         14.9320    28.4830    16.5330 HW2           1 RES     
    9629 OW          32.0980     2.3190    14.4310 OW            1 RES     
    9630 HW1         32.9990     2.6490    14.1490 HW1           1 RES     
    9631 HW2         32.1720     1.8640    15.3190 HW2           1 RES     
    9632 OW          47.9730    20.6710     6.8760 OW            1 RES     
    9633 HW1         48.2360    21.5770     6.5460 HW1           1 RES     
    9634 HW2         48.2930    19.9750     6.2330 HW2           1 RES     
    9635 OW          27.9970    28.5070     1.8760 OW            1 RES     
    9636 HW1         28.2360    29.4650     2.0360 HW1           1 RES     
    9637 HW2         27.4290    28.4370     1.0560 HW2           1 RES     
    9638 OW          25.3730    48.0550    12.7040 OW            1 RES     
    9639 HW1         25.8460    48.8130    12.2560 HW1           1 RES     
    9640 HW2         24.4570    48.3470    12.9780 HW2           1 RES     
    9641 OW          20.6740     6.5440     0.6380 OW            1 RES     
    9642 HW1         20.9360     5.5870     0.5190 HW1           1 RES     
    9643 HW2         19.9330     6.7690     0.0060 HW2           1 RES     
    9644 OW           7.9530    41.9790    19.7570 OW            1 RES     
    9645 HW1          8.6980    41.3530    19.9850 HW1           1 RES     
    9646 HW2          7.4020    41.5870    19.0200 HW2           1 RES     
    9647 OW          33.6650    34.5920     1.2760 OW            1 RES     
    9648 HW1         33.1430    35.4070     1.5250 HW1           1 RES     
    9649 HW2         34.5110    34.8650     0.8170 HW2           1 RES     
    9650 OW           3.2900    45.6630    20.9490 OW            1 RES     
    9651 HW1          3.0600    45.4110    20.0100 HW1           1 RES     
    9652 HW2          3.4950    46.6410    20.9920 HW2           1 RES     
    9653 OW          48.1430     4.5590    16.2200 OW            1 RES     
    9654 HW1         47.5100     5.2900    16.4700 HW1           1 RES     
    9655 HW2         47.8850     3.7170    16.6950 HW2           1 RES     
    9656 OW          41.1180    30.3200    12.0790 OW            1 RES     
    9657 HW1         42.0170    30.2750    11.6450 HW1           1 RES     
    9658 HW2         41.0770    31.1170    12.6820 HW2           1 RES     
    9659 OW          33.5500     4.6900    20.9000 OW            1 RES     
    9660 HW1         34.2030     4.4980    21.6320 HW1           1 RES     
    9661 HW2         32.8150     4.0110    20.9220 HW2           1 RES     
    9662 OW          13.1510     4.2980    16.0740 OW            1 RES     
    9663 HW1         12.3860     3.6560    16.1320 HW1           1 RES     
    9664 HW2         12.8010     5.2340    16.0580 HW2           1 RES     
    9665 OW          50.2790    15.4290     1.9040 OW            1 RES     
    9666 HW1         51.0630    15.3720     1.2870 HW1           1 RES     
    9667 HW2         50.0130    16.3860     2.0190 HW2           1 RES     
    9668 OW          52.3660    24.4230     4.0330 OW            1 RES     
    9669 HW1         51.9100    24.1750     4.8870 HW1           1 RES     
    9670 HW2         52.3310    23.6490     3.4000 HW2           1 RES     
    9671 OW          51.0820    29.2640    20.0850 OW            1 RES     
    9672 HW1         51.3420    28.3140    20.2520 HW1           1 RES     
    9673 HW2         51.8180    29.7300    19.5940 HW2           1 RES     
    9674 OW          20.3590    22.8410     0.5250 OW            1 RES     
    9675 HW1         21.1350    23.4690     0.5500 HW1           1 RES     
    9676 HW2         20.6930    21.8980     0.5270 HW2           1 RES     
    9677 OW           1.1250     4.7610     3.9160 OW            1 RES     
    9678 HW1          1.1830     4.2340     4.7640 HW1           1 RES     
    9679 HW2          1.4990     5.6770     4.0660 HW2           1 RES     
    9680 OW           0.5370    34.5800    15.3710 OW            1 RES     
    9681 HW1          0.7160    33.7330    15.8700 HW1           1 RES     
    9682 HW2          1.1470    34.6370    14.5800 HW2           1 RES     
    9683 OW          48.0450     3.7570     0.7320 OW            1 RES     
    9684 HW1         48.6530     3.4510     0.0000 HW1           1 RES     
    9685 HW2         47.2550     3.1470     0.7870 HW2           1 RES     
    9686 OW          20.3510    26.2130    20.2220 OW            1 RES     
    9687 HW1         20.8400    25.3840    19.9510 HW1           1 RES     
    9688 HW2         21.0050    26.9560    20.3650 HW2           1 RES     
    9689 OW           0.6100    41.4560     1.4880 OW            1 RES     
    9690 HW1          0.2000    41.4220     2.3980 HW1           1 RES     
    9691 HW2          0.0000    41.9450     0.8640 HW2           1 RES     
    9692 OW          38.9670    30.7590     4.7640 OW            1 RES     
    9693 HW1         38.4470    31.3890     5.3390 HW1           1 RES     
    9694 HW2         39.1060    29.8980     5.2530 HW2           1 RES     
    9695 OW          44.3530    40.3760     4.6740 OW            1 RES     
    9696 HW1         43.6370    39.8310     5.1100 HW1           1 RES     
    9697 HW2         45.2440    40.1160     5.0460 HW2           1 RES     
    9698 OW           4.1670    10.2670    12.2780 OW            1 RES     
    9699 HW1          3.7770     9.3490    12.2190 HW1           1 RES     
    9700 HW2          5.1530    10.2020    12.4320 HW2           1 RES     
    9701 OW          15.1740    28.2860    23.4160 OW            1 RES     
    9702 HW1         14.1790    28.1920    23.4080 HW1           1 RES     
    9703 HW2         15.5960    27.3790    23.3890 HW2           1 RES     
    9704 OW           1.1730    29.9060     7.1090 OW            1 RES     
    9705 HW1          0.7410    29.0060     7.0630 HW1           1 RES     
    9706 HW2          2.1640    29.8060     7.0200 HW2           1 RES     
    9707 OW          32.5090    48.2630    13.9940 OW            1 RES     
    9708 HW1         32.4510    47.8710    14.9120 HW1           1 RES     
    9709 HW2         31.6930    48.8120    13.8140 HW2           1 RES     
    9710 OW          22.4990    40.8890    17.7200 OW            1 RES     
    9711 HW1         21.9320    40.0960    17.5010 HW1           1 RES     
    9712 HW2         21.9800    41.5220    18.2940 HW2           1 RES     
    9713 OW          56.5810    35.3700    23.5980 OW            1 RES     
    9714 HW1         55.8470    34.9820    24.1530 HW1           1 RES     
    9715 HW2         57.2380    34.6520    23.3640 HW2           1 RES     
    9716 OW          46.8980    38.7020     9.5450 OW            1 RES     
    9717 HW1         47.8690    38.4760     9.4770 HW1           1 RES     
    9718 HW2         46.7820    39.6940     9.4890 HW2           1 RES     
    9719 OW          15.8480    32.5240    21.4370 OW            1 RES     
    9720 HW1         16.7700    32.6940    21.0930 HW1           1 RES     
    9721 HW2         15.1830    33.0010    20.8610 HW2           1 RES     
    9722 OW          40.7160    42.6910    24.8210 OW            1 RES     
    9723 HW1         39.9730    42.0790    25.0880 HW1           1 RES     
    9724 HW2         41.5360    42.1540    24.6220 HW2           1 RES     
    9725 OW          58.6950    33.3130    25.0120 OW            1 RES     
    9726 HW1         59.5970    32.8920    25.1070 HW1           1 RES     
    9727 HW2         58.7980    34.3010    24.8980 HW2           1 RES     
    9728 OW          31.9380     4.0380     3.0440 OW            1 RES     
    9729 HW1         32.4930     4.6270     3.6310 HW1           1 RES     
    9730 HW2         32.5070     3.6680     2.3090 HW2           1 RES     
    9731 OW          56.5210    34.0850    11.1310 OW            1 RES     
    9732 HW1         55.5880    33.7280    11.0830 HW1           1 RES     
    9733 HW2         56.4930    35.0750    11.2690 HW2           1 RES     
    9734 OW          10.5150    41.0830     8.0480 OW            1 RES     
    9735 HW1         10.4130    40.2570     7.4940 HW1           1 RES     
    9736 HW2         10.4870    40.8400     9.0180 HW2           1 RES     
    9737 OW          58.1710    10.0210    15.1530 OW            1 RES     
    9738 HW1         58.4620     9.0830    14.9710 HW1           1 RES     
    9739 HW2         58.5620    10.3300    16.0210 HW2           1 RES     
    9740 OW          28.2260    25.8830    13.2960 OW            1 RES     
    9741 HW1         29.0120    25.2760    13.4060 HW1           1 RES     
    9742 HW2         27.3820    25.3500    13.3480 HW2           1 RES     
    9743 OW          25.1850    33.0820     7.7990 OW            1 RES     
    9744 HW1         24.3060    33.3180     8.2120 HW1           1 RES     
    9745 HW2         25.6730    33.9190     7.5520 HW2           1 RES     
    9746 OW           0.9200    20.7610    14.9500 OW            1 RES     
    9747 HW1          0.9290    21.0470    15.9080 HW1           1 RES     
    9748 HW2          0.0080    20.4270    14.7100 HW2           1 RES     
    9749 OW          47.7500    32.0300     5.9150 OW            1 RES     
    9750 HW1         48.2410    31.5370     5.1980 HW1           1 RES     
    9751 HW2         48.2440    32.8700     6.1400 HW2           1 RES     
    9752 OW          30.0650     1.0300     1.1130 OW            1 RES     
    9753 HW1         30.9580     1.4380     0.9230 HW1           1 RES     
    9754 HW2         29.4560     1.7240     1.4980 HW2           1 RES     
    9755 OW          45.6760    34.4420    13.7630 OW            1 RES     
    9756 HW1         44.8840    35.0270    13.9320 HW1           1 RES     
    9757 HW2         45.5370    33.5550    14.2030 HW2           1 RES     
    9758 OW          20.3600    36.9010    18.6870 OW            1 RES     
    9759 HW1         20.5870    37.8440    18.9280 HW1           1 RES     
    9760 HW2         19.3740    36.8240    18.5350 HW2           1 RES     
    9761 OW          42.8090    15.4170    18.7390 OW            1 RES     
    9762 HW1         43.6260    15.9770    18.8730 HW1           1 RES     
    9763 HW2         42.0240    15.8630    19.1700 HW2           1 RES     
    9764 OW           2.7300    39.2550    13.0320 OW            1 RES     
    9765 HW1          1.8250    39.6250    12.8220 HW1           1 RES     
    9766 HW2          3.3350    39.9980    13.3200 HW2           1 RES     
    9767 OW          34.9510    28.2020    23.5130 OW            1 RES     
    9768 HW1         35.9120    28.1180    23.2540 HW1           1 RES     
    9769 HW2         34.4700    27.3520    23.2950 HW2           1 RES     
    9770 OW           4.1690    25.2490     8.9130 OW            1 RES     
    9771 HW1          4.7130    25.0360     9.7240 HW1           1 RES     
    9772 HW2          4.7650    25.2920     8.1120 HW2           1 RES     
    9773 OW          54.7890    48.3240    12.3080 OW            1 RES     
    9774 HW1         55.6170    47.8730    12.6380 HW1           1 RES     
    9775 HW2         54.2070    47.6550    11.8450 HW2           1 RES     
    9776 OW          48.8480    41.7150    19.7750 OW            1 RES     
    9777 HW1         47.8520    41.6690    19.8480 HW1           1 RES     
    9778 HW2         49.1200    42.6380    19.5050 HW2           1 RES     
    9779 OW          21.0300    42.9680    16.8600 OW            1 RES     
    9780 HW1         20.4340    43.7150    17.1520 HW1           1 RES     
    9781 HW2         21.0190    42.9020    15.8620 HW2           1 RES     
    9782 OW          27.3610    14.4320    11.3450 OW            1 RES     
    9783 HW1         27.6400    15.1390    11.9940 HW1           1 RES     
    9784 HW2         26.5130    14.0050    11.6590 HW2           1 RES     
    9785 OW          37.1190    40.8760     3.4700 OW            1 RES     
    9786 HW1         37.3310    39.9820     3.8620 HW1           1 RES     
    9787 HW2         36.6010    40.7540     2.6230 HW2           1 RES     
    9788 OW          44.6770    13.3150    14.9330 OW            1 RES     
    9789 HW1         45.6160    13.0280    14.7490 HW1           1 RES     
    9790 HW2         44.1130    13.1530    14.1230 HW2           1 RES     
    9791 OW          57.6870     0.6060    13.8350 OW            1 RES     
    9792 HW1         57.1400     1.3460    14.2260 HW1           1 RES     
    9793 HW2         58.6270     0.9210    13.7020 HW2           1 RES     
    9794 OW           2.7720    12.3900     9.1630 OW            1 RES     
    9795 HW1          2.3360    13.2300     8.8420 HW1           1 RES     
    9796 HW2          3.7630    12.5210     9.2000 HW2           1 RES     
    9797 OW          42.4790    20.3480     3.6580 OW            1 RES     
    9798 HW1         43.3550    20.3020     3.1800 HW1           1 RES     
    9799 HW2         41.9970    19.4770     3.5560 HW2           1 RES     
    9800 OW          35.9760    23.0260    13.8030 OW            1 RES     
    9801 HW1         35.4120    22.7310    13.0330 HW1           1 RES     
    9802 HW2         35.8820    22.3730    14.5550 HW2           1 RES     
    9803 OW          26.3480     2.6020     0.5180 OW            1 RES     
    9804 HW1         26.1680     2.2550     1.4380 HW1           1 RES     
    9805 HW2         27.2650     2.3250     0.2300 HW2           1 RES     
    9806 OW          14.9510    37.1360     5.6050 OW            1 RES     
    9807 HW1         15.2270    38.0500     5.9010 HW1           1 RES     
    9808 HW2         14.6300    36.6120     6.3940 HW2           1 RES     
    9809 OW          42.2580    15.1950     5.4850 OW            1 RES     
    9810 HW1         41.4660    14.8230     5.9680 HW1           1 RES     
    9811 HW2         42.2690    14.8510     4.5460 HW2           1 RES     
    9812 OW           3.7020     0.9370    18.2220 OW            1 RES     
    9813 HW1          4.6360     1.0160    18.5680 HW1           1 RES     
    9814 HW2          3.3760     0.0000    18.3520 HW2           1 RES     
    9815 OW          57.8530    41.1160     4.4160 OW            1 RES     
    9816 HW1         57.9840    40.6620     5.2960 HW1           1 RES     
    9817 HW2         56.9310    40.9280     4.0760 HW2           1 RES     
    9818 OW          54.2020    43.1790     9.5060 OW            1 RES     
    9819 HW1         54.3830    43.3740    10.4700 HW1           1 RES     
    9820 HW2         54.0260    42.2010     9.3910 HW2           1 RES     
    9821 OW          42.8570    37.8650    22.7700 OW            1 RES     
    9822 HW1         43.3630    37.4890    23.5450 HW1           1 RES     
    9823 HW2         42.1410    37.2240    22.4960 HW2           1 RES     
    9824 OW          53.7640     3.1070     4.2580 OW            1 RES     
    9825 HW1         53.4790     4.0000     4.6050 HW1           1 RES     
    9826 HW2         53.7090     2.4300     4.9910 HW2           1 RES     
    9827 OW          26.4280    33.2060    22.0090 OW            1 RES     
    9828 HW1         27.1340    32.5630    22.3040 HW1           1 RES     
    9829 HW2         26.5090    33.3620    21.0240 HW2           1 RES     
    9830 OW          15.0260    24.4220    19.9480 OW            1 RES     
    9831 HW1         15.9930    24.1760    20.0090 HW1           1 RES     
    9832 HW2         14.4770    23.7450    20.4370 HW2           1 RES     
    9833 OW          32.7520    22.0680    12.7300 OW            1 RES     
    9834 HW1         33.4890    21.4390    12.9770 HW1           1 RES     
    9835 HW2         33.0370    22.6260    11.9500 HW2           1 RES     
    9836 OW          14.0040    22.3590    24.4190 OW            1 RES     
    9837 HW1         13.3490    22.6180    23.7090 HW1           1 RES     
    9838 HW2         13.6800    21.5360    24.8870 HW2           1 RES     
    9839 OW          44.9330    31.4780    20.1870 OW            1 RES     
    9840 HW1         44.7620    31.2050    19.2410 HW1           1 RES     
    9841 HW2         44.1280    31.2730    20.7440 HW2           1 RES     
    9842 OW          38.6570    14.5140     1.5910 OW            1 RES     
    9843 HW1         37.9670    13.8990     1.2110 HW1           1 RES     
    9844 HW2         39.2040    14.9030     0.8490 HW2           1 RES     
    9845 OW          30.1230    35.3110    16.4290 OW            1 RES     
    9846 HW1         29.9950    36.1890    15.9680 HW1           1 RES     
    9847 HW2         29.2380    34.8580    16.5370 HW2           1 RES     
    9848 OW          40.0860    41.1760    18.4940 OW            1 RES     
    9849 HW1         40.0400    42.0360    17.9870 HW1           1 RES     
    9850 HW2         39.3080    41.1150    19.1190 HW2           1 RES     
    9851 OW          12.6450    13.8010     2.9180 OW            1 RES     
    9852 HW1         11.9850    14.5510     2.9270 HW1           1 RES     
    9853 HW2         12.1700    12.9360     3.0760 HW2           1 RES     
    9854 OW          29.2060     9.1820    16.6720 OW            1 RES     
    9855 HW1         28.3100     8.7430    16.7240 HW1           1 RES     
    9856 HW2         29.9220     8.4870    16.7320 HW2           1 RES     
    9857 OW          62.6250    42.0040     2.2420 OW            1 RES     
    9858 HW1         62.5980    41.0050     2.2600 HW1           1 RES     
    9859 HW2         62.2090    42.3340     1.3940 HW2           1 RES     
    9860 OW          28.4470    14.4270    16.8160 OW            1 RES     
    9861 HW1         28.9240    15.2340    17.1610 HW1           1 RES     
    9862 HW2         28.0380    14.6360    15.9270 HW2           1 RES     
    9863 OW          55.2030     1.0890     3.2120 OW            1 RES     
    9864 HW1         56.0400     1.4100     2.7700 HW1           1 RES     
    9865 HW2         55.3830     0.9100     4.1800 HW2           1 RES     
    9866 OW          21.7940    16.4680     4.2020 OW            1 RES     
    9867 HW1         20.9900    16.2960     3.6340 HW1           1 RES     
    9868 HW2         21.5030    16.7200     5.1250 HW2           1 RES     
    9869 OW          23.8170    39.9250    23.1260 OW            1 RES     
    9870 HW1         23.7290    40.8750    22.8290 HW1           1 RES     
    9871 HW2         23.6790    39.3170    22.3430 HW2           1 RES     
    9872 OW          61.2250    28.4200     8.5180 OW            1 RES     
    9873 HW1         60.5720    29.1560     8.3430 HW1           1 RES     
    9874 HW2         60.9690    27.6130     7.9850 HW2           1 RES     
    9875 OW           0.2810     5.1020     7.8210 OW            1 RES     
    9876 HW1          0.1250     4.1150     7.8450 HW1           1 RES     
    9877 HW2          0.0090     5.5040     8.6960 HW2           1 RES     
    9878 OW           7.7310    42.6360     3.8830 OW            1 RES     
    9879 HW1          6.8690    42.7710     3.3950 HW1           1 RES     
    9880 HW2          8.0620    41.7060     3.7240 HW2           1 RES     
    9881 OW           6.0240    33.6260    14.0190 OW            1 RES     
    9882 HW1          5.9050    33.5290    15.0060 HW1           1 RES     
    9883 HW2          6.6920    32.9560    13.6950 HW2           1 RES     
    9884 OW          58.3170    30.1940    22.9930 OW            1 RES     
    9885 HW1         58.4300    29.4220    23.6170 HW1           1 RES     
    9886 HW2         59.1850    30.3790    22.5300 HW2           1 RES     
    9887 OW          56.7790    38.5810    16.1730 OW            1 RES     
    9888 HW1         57.7660    38.4320    16.2110 HW1           1 RES     
    9889 HW2         56.5910    39.5620    16.1210 HW2           1 RES     
    9890 OW           6.6550    15.5360     4.7850 OW            1 RES     
    9891 HW1          6.3060    15.3150     5.6940 HW1           1 RES     
    9892 HW2          7.0850    14.7250     4.3860 HW2           1 RES     
    9893 OW          33.8400     9.5900    16.3420 OW            1 RES     
    9894 HW1         34.0960     8.7000    16.7180 HW1           1 RES     
    9895 HW2         34.6640    10.1330    16.1780 HW2           1 RES     
    9896 OW           6.4060    39.6880    17.7220 OW            1 RES     
    9897 HW1          7.2960    39.2960    17.9550 HW1           1 RES     
    9898 HW2          5.8480    38.9970    17.2620 HW2           1 RES     
    9899 OW          16.9870    47.4350     3.3610 OW            1 RES     
    9900 HW1         16.1310    47.6780     2.9060 HW1           1 RES     
    9901 HW2         17.1250    48.0320     4.1510 HW2           1 RES     
    9902 OW          57.9150     2.7380    11.3720 OW            1 RES     
    9903 HW1         56.9240     2.7740    11.2460 HW1           1 RES     
    9904 HW2         58.2390     1.8070    11.2020 HW2           1 RES     
    9905 OW          34.9990     9.1220    19.2830 OW            1 RES     
    9906 HW1         34.5530     8.2300    19.2210 HW1           1 RES     
    9907 HW2         35.8550     9.0330    19.7930 HW2           1 RES     
    9908 OW          60.4230    15.0310     7.1700 OW            1 RES     
    9909 HW1         60.0780    14.5450     7.9730 HW1           1 RES     
    9910 HW2         59.6600    15.2580     6.5650 HW2           1 RES     
    9911 OW          15.1740    33.2460     2.9880 OW            1 RES     
    9912 HW1         15.4490    34.0830     3.4610 HW1           1 RES     
    9913 HW2         14.8280    33.4750     2.0780 HW2           1 RES     
    9914 OW          44.2430    23.3090    19.5680 OW            1 RES     
    9915 HW1         44.2860    23.6760    20.4960 HW1           1 RES     
    9916 HW2         44.7320    22.4370    19.5300 HW2           1 RES     
    9917 OW          10.9280    14.8430    24.8710 OW            1 RES     
    9918 HW1         11.8580    14.4990    24.7420 HW1           1 RES     
    9919 HW2         10.9420    15.8430    24.8870 HW2           1 RES     
    9920 OW          37.1690    14.2180    19.9720 OW            1 RES     
    9921 HW1         37.3230    14.2670    20.9590 HW1           1 RES     
    9922 HW2         36.7240    15.0570    19.6610 HW2           1 RES     
    9923 OW           5.2350     3.6740     3.6730 OW            1 RES     
    9924 HW1          5.0910     4.6480     3.5010 HW1           1 RES     
    9925 HW2          6.0850     3.3790     3.2350 HW2           1 RES     
    9926 OW           6.6610    38.6460    24.6710 OW            1 RES     
    9927 HW1          6.5600    38.6760    23.6770 HW1           1 RES     
    9928 HW2          5.7570    38.6370    25.0980 HW2           1 RES     
    9929 OW          56.3600    30.6730    13.0540 OW            1 RES     
    9930 HW1         57.2670    30.9850    12.7750 HW1           1 RES     
    9931 HW2         55.8690    31.4250    13.4930 HW2           1 RES     
    9932 OW          35.1950    21.6170     7.1780 OW            1 RES     
    9933 HW1         35.8200    20.8660     7.3900 HW1           1 RES     
    9934 HW2         35.6610    22.4900     7.3220 HW2           1 RES     
    9935 OW          31.1710    37.5680     5.7930 OW            1 RES     
    9936 HW1         31.1330    38.5470     5.9880 HW1           1 RES     
    9937 HW2         31.9810    37.1720     6.2250 HW2           1 RES     
    9938 OW          57.1980     6.1230     5.0790 OW            1 RES     
    9939 HW1         57.0360     7.1040     5.1810 HW1           1 RES     
    9940 HW2         57.9890     5.8560     5.6300 HW2           1 RES     
    9941 OW           4.3410     6.5630    19.1840 OW            1 RES     
    9942 HW1          4.3390     6.9980    20.0840 HW1           1 RES     
    9943 HW2          5.2830     6.3750    18.9060 HW2           1 RES     
    9944 OW           5.4270     2.2120    13.0950 OW            1 RES     
    9945 HW1          4.7680     1.8980    12.4120 HW1           1 RES     
    9946 HW2          5.6150     1.4730    13.7420 HW2           1 RES     
    9947 OW          17.8420    13.2890    23.7080 OW            1 RES     
    9948 HW1         16.9170    12.9970    23.9470 HW1           1 RES     
    9949 HW2         17.8500    13.6400    22.7710 HW2           1 RES     
    9950 OW          20.3160    10.7180    19.2240 OW            1 RES     
    9951 HW1         20.6480    11.6550    19.1140 HW1           1 RES     
    9952 HW2         20.9750    10.1920    19.7620 HW2           1 RES     
    9953 OW          47.5720    14.2890     9.3870 OW            1 RES     
    9954 HW1         48.1310    13.4870     9.1800 HW1           1 RES     
    9955 HW2         47.2210    14.6790     8.5350 HW2           1 RES     
    9956 OW          13.8790    31.9610    10.8390 OW            1 RES     
    9957 HW1         14.3020    32.4920    11.5720 HW1           1 RES     
    9958 HW2         14.5590    31.3490    10.4350 HW2           1 RES     
    9959 OW          50.6100     8.6860    13.4600 OW            1 RES     
    9960 HW1         51.0460     8.3550    12.6240 HW1           1 RES     
    9961 HW2         51.0360     8.2530    14.2540 HW2           1 RES     
    9962 OW          55.1100    23.0760     0.4310 OW            1 RES     
    9963 HW1         55.5600    22.2000     0.2600 HW1           1 RES     
    9964 HW2         55.8000    23.7750     0.6170 HW2           1 RES     
    9965 OW           6.9990     3.7350     9.6610 OW            1 RES     
    9966 HW1          6.1860     3.9910    10.1820 HW1           1 RES     
    9967 HW2          7.3930     2.9000    10.0460 HW2           1 RES     
    9968 OW          61.4900    22.0410     4.1550 OW            1 RES     
    9969 HW1         61.5190    22.2440     3.1770 HW1           1 RES     
    9970 HW2         60.8700    21.2730     4.3180 HW2           1 RES     
    9971 OW          45.0320     5.9350     0.4050 OW            1 RES     
    9972 HW1         45.3230     5.0220     0.1200 HW1           1 RES     
    9973 HW2         44.9810     5.9730     1.4030 HW2           1 RES     
    9974 OW          33.4060    20.5910     8.8670 OW            1 RES     
    9975 HW1         33.7940    19.9510     9.5300 HW1           1 RES     
    9976 HW2         32.9630    20.0810     8.1300 HW2           1 RES     
    9977 OW          51.1670    31.8900    17.6480 OW            1 RES     
    9978 HW1         50.6460    32.7420    17.6600 HW1           1 RES     
    9979 HW2         52.1390    32.0910    17.7740 HW2           1 RES     
    9980 OW          54.2330    35.5600     8.3460 OW            1 RES     
    9981 HW1         53.6240    34.8220     8.6330 HW1           1 RES     
    9982 HW2         55.1800    35.2400     8.3690 HW2           1 RES     
    9983 OW          49.0020    16.3840    12.5310 OW            1 RES     
    9984 HW1         49.5690    15.6130    12.8190 HW1           1 RES     
    9985 HW2         48.5690    16.7970    13.3320 HW2           1 RES     
    9986 OW          36.3460    15.6340     9.2310 OW            1 RES     
    9987 HW1         35.9220    15.5840     8.3270 HW1           1 RES     
    9988 HW2         36.6310    16.5750     9.4140 HW2           1 RES     
    9989 OW          45.0180     7.4520    15.7150 OW            1 RES     
    9990 HW1         44.5710     8.0770    16.3540 HW1           1 RES     
    9991 HW2         45.3070     7.9560    14.9020 HW2           1 RES     
    9992 OW          32.7530    15.0890     2.8360 OW            1 RES     
    9993 HW1         33.7210    14.9750     2.6150 HW1           1 RES     
    9994 HW2         32.4850    16.0400     2.6790 HW2           1 RES     
    9995 OW          45.2050    23.9510    14.0750 OW            1 RES     
    9996 HW1         45.1750    23.4090    14.9150 HW1           1 RES     
    9997 HW2         44.5740    24.7230    14.1530 HW2           1 RES     
    9998 OW          45.1050    33.9040     0.0280 OW            1 RES     
    9999 HW1         45.6460    34.5840     0.5220 HW1           1 RES     
   10000 HW2         44.2840    33.6840     0.5550 HW2           1 RES     
   10001 OW          36.3680    34.8970     3.9310 OW            1 RES     
   10002 HW1         36.0750    35.8490     3.8480 HW1           1 RES     
   10003 HW2         35.6030    34.3400     4.2550 HW2           1 RES     
   10004 OW          60.5790    12.4170     5.3980 OW            1 RES     
   10005 HW1         60.0970    11.8280     6.0460 HW1           1 RES     
   10006 HW2         60.0840    12.4340     4.5290 HW2           1 RES     
   10007 OW          18.5150    38.5400    21.7810 OW            1 RES     
   10008 HW1         17.5360    38.4560    21.5980 HW1           1 RES     
   10009 HW2         19.0250    37.9580    21.1480 HW2           1 RES     
   10010 OW          56.6380    15.2630     3.0600 OW            1 RES     
   10011 HW1         55.8410    15.8590     2.9710 HW1           1 RES     
   10012 HW2         56.3640    14.3130     2.9090 HW2           1 RES     
   10013 OW          42.6960     9.1280     0.7110 OW            1 RES     
   10014 HW1         42.3830     9.3430     1.6360 HW1           1 RES     
   10015 HW2         42.0820     8.4550     0.2980 HW2           1 RES     
   10016 OW          21.5860    29.0450     1.5440 OW            1 RES     
   10017 HW1         22.2930    29.1200     2.2470 HW1           1 RES     
   10018 HW2         20.7930    29.5960     1.8080 HW2           1 RES     
   10019 OW          35.3250    30.4480    20.6160 OW            1 RES     
   10020 HW1         35.7910    29.6280    20.2860 HW1           1 RES     
   10021 HW2         35.4380    30.5210    21.6070 HW2           1 RES     
   10022 OW          31.3980     9.3250    13.3430 OW            1 RES     
   10023 HW1         30.4380     9.5770    13.2260 HW1           1 RES     
   10024 HW2         31.9350    10.1450    13.5450 HW2           1 RES     
   10025 OW          45.5770    11.2620    12.2600 OW            1 RES     
   10026 HW1         44.9560    10.4800    12.2180 HW1           1 RES     
   10027 HW2         45.0460    12.1080    12.3130 HW2           1 RES     
   10028 OW          55.3850    19.3190     8.9210 OW            1 RES     
   10029 HW1         56.1980    18.8500     8.5770 HW1           1 RES     
   10030 HW2         54.6070    18.6910     8.9070 HW2           1 RES     
   10031 OW          18.9320    17.9220     5.7120 OW            1 RES     
   10032 HW1         18.9500    17.0880     5.1610 HW1           1 RES     
   10033 HW2         19.6020    17.8480     6.4510 HW2           1 RES     
   10034 OW          46.3830    14.0770    24.6250 OW            1 RES     
   10035 HW1         46.0580    14.7190    23.9310 HW1           1 RES     
   10036 HW2         45.9490    13.1870    24.4870 HW2           1 RES     
   10037 OW          49.9550    25.0140    15.2580 OW            1 RES     
   10038 HW1         49.7540    25.8120    14.6920 HW1           1 RES     
   10039 HW2         50.5370    25.2860    16.0250 HW2           1 RES     
   10040 OW          45.2320    24.9230    12.0390 OW            1 RES     
   10041 HW1         44.2480    25.0180    11.8930 HW1           1 RES     
   10042 HW2         45.6960    25.7610    11.7490 HW2           1 RES     
   10043 OW           2.8900     9.0920    16.1980 OW            1 RES     
   10044 HW1          3.2130    10.0300    16.0750 HW1           1 RES     
   10045 HW2          1.8910     9.0830    16.2200 HW2           1 RES     
   10046 OW          19.7460     2.3270     0.6650 OW            1 RES     
   10047 HW1         19.9200     3.2970     0.4980 HW1           1 RES     
   10048 HW2         19.0160     2.2300     1.3410 HW2           1 RES     
   10049 OW          58.9060    21.3200    24.3040 OW            1 RES     
   10050 HW1         59.3830    21.8330    25.0170 HW1           1 RES     
   10051 HW2         59.4250    20.4950    24.0820 HW2           1 RES     
   10052 OW          53.8880    15.6270    20.1100 OW            1 RES     
   10053 HW1         53.6250    16.5520    19.8400 HW1           1 RES     
   10054 HW2         53.7530    15.5150    21.0950 HW2           1 RES     
   10055 OW          35.5710     3.2520    23.7310 OW            1 RES     
   10056 HW1         36.0330     3.4180    24.6020 HW1           1 RES     
   10057 HW2         35.7640     4.0060    23.1030 HW2           1 RES     
   10058 OW           3.6070     4.2510    10.7000 OW            1 RES     
   10059 HW1          2.8040     3.7090    10.4550 HW1           1 RES     
   10060 HW2          4.2090     3.7090    11.2860 HW2           1 RES     
   10061 OW          27.9050     7.4130     5.9970 OW            1 RES     
   10062 HW1         28.4680     7.4650     6.8210 HW1           1 RES     
   10063 HW2         27.0170     7.0120     6.2250 HW2           1 RES     
   10064 OW           6.2580    45.8440    21.8620 OW            1 RES     
   10065 HW1          6.5870    46.4620    21.1480 HW1           1 RES     
   10066 HW2          6.5030    46.2100    22.7600 HW2           1 RES     
   10067 OW          15.2950    45.4980     7.5890 OW            1 RES     
   10068 HW1         16.2160    45.6710     7.2410 HW1           1 RES     
   10069 HW2         14.8440    44.8150     7.0140 HW2           1 RES     
   10070 OW          10.0220     5.4520    24.0710 OW            1 RES     
   10071 HW1         10.3980     6.3770    24.0310 HW1           1 RES     
   10072 HW2         10.3240     5.0050    24.9140 HW2           1 RES     
   10073 OW          59.5840    46.0970    23.0670 OW            1 RES     
   10074 HW1         59.2330    47.0320    23.0630 HW1           1 RES     
   10075 HW2         60.5840    46.1150    23.0790 HW2           1 RES     
   10076 OW          19.9910     4.7730    17.3170 OW            1 RES     
   10077 HW1         20.9790     4.7530    17.4650 HW1           1 RES     
   10078 HW2         19.6510     3.8390    17.2080 HW2           1 RES     
   10079 OW          61.5280    25.1850    16.1460 OW            1 RES     
   10080 HW1         61.0540    25.2280    15.2670 HW1           1 RES     
   10081 HW2         60.9090    25.4790    16.8740 HW2           1 RES     
   10082 OW          30.1430    14.2940    10.2090 OW            1 RES     
   10083 HW1         30.3160    15.2200     9.8730 HW1           1 RES     
   10084 HW2         30.7830    14.0830    10.9480 HW2           1 RES     
   10085 OW          41.4820     1.8300    20.8150 OW            1 RES     
   10086 HW1         40.6050     2.1570    21.1660 HW1           1 RES     
   10087 HW2         42.2280     2.2910    21.2960 HW2           1 RES     
   10088 OW          12.9080    48.7120     5.0500 OW            1 RES     
   10089 HW1         13.7090    48.2310     5.4050 HW1           1 RES     
   10090 HW2         12.1020    48.1260     5.1360 HW2           1 RES     
   10091 OW          41.2090    42.5010    19.9750 OW            1 RES     
   10092 HW1         41.4580    42.4210    20.9390 HW1           1 RES     
   10093 HW2         41.9330    42.1080    19.4080 HW2           1 RES     
   10094 OW           2.8690    12.8950    14.0850 OW            1 RES     
   10095 HW1          3.7460    13.3670    14.1770 HW1           1 RES     
   10096 HW2          3.0120    12.0080    13.6450 HW2           1 RES     
   10097 OW          10.1060    29.8000     1.6800 OW            1 RES     
   10098 HW1         10.5360    29.0820     2.2250 HW1           1 RES     
   10099 HW2         10.4580    29.7660     0.7450 HW2           1 RES     
   10100 OW           8.0610     6.4990     8.4720 OW            1 RES     
   10101 HW1          7.5090     5.8240     8.9600 HW1           1 RES     
   10102 HW2          7.4620     7.1880     8.0630 HW2           1 RES     
   10103 OW          27.1790    11.2800    15.6740 OW            1 RES     
   10104 HW1         27.3780    12.2400    15.4770 HW1           1 RES     
   10105 HW2         28.0260    10.7500    15.6430 HW2           1 RES     
   10106 OW          48.3890    41.8460    10.9760 OW            1 RES     
   10107 HW1         47.8800    42.7030    10.8960 HW1           1 RES     
   10108 HW2         48.0350    41.3190    11.7500 HW2           1 RES     
   10109 OW          45.5440     9.9890    21.8820 OW            1 RES     
   10110 HW1         46.3030     9.5300    21.4210 HW1           1 RES     
   10111 HW2         44.6960     9.8180    21.3800 HW2           1 RES     
   10112 OW          55.1880    29.1190     0.6130 OW            1 RES     
   10113 HW1         56.0300    29.0390     1.1460 HW1           1 RES     
   10114 HW2         55.0550    28.2890     0.0710 HW2           1 RES     
   10115 OW          35.9370    35.8060    13.1960 OW            1 RES     
   10116 HW1         35.3510    36.5090    13.5970 HW1           1 RES     
   10117 HW2         35.7250    34.9190    13.6070 HW2           1 RES     
   10118 OW           7.7490    25.8270    13.6510 OW            1 RES     
   10119 HW1          7.2050    26.6150    13.3640 HW1           1 RES     
   10120 HW2          7.2190    25.2700    14.2900 HW2           1 RES     
   10121 OW          49.2670    47.5430     3.0610 OW            1 RES     
   10122 HW1         49.9950    47.3970     2.3910 HW1           1 RES     
   10123 HW2         49.0230    46.6700     3.4840 HW2           1 RES     
   10124 OW          33.6340    37.8610     9.7620 OW            1 RES     
   10125 HW1         34.3900    37.2200     9.6370 HW1           1 RES     
   10126 HW2         32.7660    37.3860     9.6190 HW2           1 RES     
   10127 OW          18.6840    35.4110     8.2940 OW            1 RES     
   10128 HW1         17.6890    35.4750     8.2180 HW1           1 RES     
   10129 HW2         19.1080    36.1110     7.7200 HW2           1 RES     
   10130 OW          60.2850    27.5450    12.7700 OW            1 RES     
   10131 HW1         59.6500    27.9760    13.4090 HW1           1 RES     
   10132 HW2         59.9730    26.6180    12.5630 HW2           1 RES     
   10133 OW          55.8490     5.6860    18.1040 OW            1 RES     
   10134 HW1         55.7800     6.6710    18.2540 HW1           1 RES     
   10135 HW2         55.4180     5.4490    17.2330 HW2           1 RES     
   10136 OW          44.3460    32.2050    16.3320 OW            1 RES     
   10137 HW1         43.4560    32.6570    16.3590 HW1           1 RES     
   10138 HW2         45.0700    32.8940    16.2840 HW2           1 RES     
   10139 OW           5.9630    28.4570    23.6090 OW            1 RES     
   10140 HW1          5.0400    28.0750    23.5760 HW1           1 RES     
   10141 HW2          5.9180    29.4500    23.4980 HW2           1 RES     
   10142 OW          42.8690    46.0290     8.8990 OW            1 RES     
   10143 HW1         43.3700    46.3220     8.0850 HW1           1 RES     
   10144 HW2         41.9580    45.7130     8.6340 HW2           1 RES     
   10145 OW           5.4770    16.2720    10.5840 OW            1 RES     
   10146 HW1          5.5950    15.2910    10.4330 HW1           1 RES     
   10147 HW2          5.2380    16.4360    11.5420 HW2           1 RES     
   10148 OW          39.5180    48.2080    17.6770 OW            1 RES     
   10149 HW1         40.4350    48.4200    17.3400 HW1           1 RES     
   10150 HW2         39.5260    48.1890    18.6770 HW2           1 RES     
   10151 OW          59.2090    37.6540    13.7330 OW            1 RES     
   10152 HW1         58.4220    37.0840    13.5030 HW1           1 RES     
   10153 HW2         58.8960    38.4930    14.1780 HW2           1 RES     
   10154 OW          61.9630    38.5160    19.4300 OW            1 RES     
   10155 HW1         61.3080    38.9500    20.0470 HW1           1 RES     
   10156 HW2         61.4880    38.1980    18.6090 HW2           1 RES     
   10157 OW          28.5750    21.2950     8.7710 OW            1 RES     
   10158 HW1         28.3140    20.9640     7.8650 HW1           1 RES     
   10159 HW2         29.5680    21.4140     8.8100 HW2           1 RES     
   10160 OW          46.9680    36.9630     7.1880 OW            1 RES     
   10161 HW1         46.1430    37.3200     7.6240 HW1           1 RES     
   10162 HW2         47.6630    37.6820     7.1500 HW2           1 RES     
   10163 OW           3.9090    48.5300    22.0430 OW            1 RES     
   10164 HW1          3.7020    48.2790    22.9880 HW1           1 RES     
   10165 HW2          4.9010    48.5650    21.9160 HW2           1 RES     
   10166 OW          52.6260    43.6630     3.4800 OW            1 RES     
   10167 HW1         52.7650    43.9800     2.5420 HW1           1 RES     
   10168 HW2         52.2230    42.7480     3.4670 HW2           1 RES     
   10169 OW          48.5790    22.9390    20.8010 OW            1 RES     
   10170 HW1         47.6600    22.5600    20.9040 HW1           1 RES     
   10171 HW2         49.2490    22.1960    20.8020 HW2           1 RES     
   10172 OW          60.0350    11.7280    13.7760 OW            1 RES     
   10173 HW1         60.2020    10.7440    13.8180 HW1           1 RES     
   10174 HW2         59.0540    11.9040    13.8650 HW2           1 RES     
   10175 OW          42.8480    25.9650     1.1160 OW            1 RES     
   10176 HW1         42.7080    26.6420     0.3940 HW1           1 RES     
   10177 HW2         41.9760    25.5330     1.3430 HW2           1 RES     
   10178 OW          60.0820     0.3840    17.6320 OW            1 RES     
   10179 HW1         59.2810     0.9800    17.6420 HW1           1 RES     
   10180 HW2         60.8940     0.9200    17.3990 HW2           1 RES     
   10181 OW          44.4350    36.1630    20.2790 OW            1 RES     
   10182 HW1         44.8150    36.9920    20.6900 HW1           1 RES     
   10183 HW2         43.4520    36.1230    20.4570 HW2           1 RES     
   10184 OW          60.7210    30.4760     1.7710 OW            1 RES     
   10185 HW1         59.9190    30.6650     1.2060 HW1           1 RES     
   10186 HW2         61.5260    30.9110     1.3660 HW2           1 RES     
   10187 OW          28.8370    18.1920     1.0810 OW            1 RES     
   10188 HW1         29.8240    18.0520     1.0140 HW1           1 RES     
   10189 HW2         28.6370    19.1720     1.0620 HW2           1 RES     
   10190 OW          33.6000    11.2710    17.7800 OW            1 RES     
   10191 HW1         33.2950    12.1750    17.4820 HW1           1 RES     
   10192 HW2         34.5450    11.3280    18.1040 HW2           1 RES     
   10193 OW          61.1770    42.3080    11.2660 OW            1 RES     
   10194 HW1         61.9880    42.8040    10.9570 HW1           1 RES     
   10195 HW2         60.3670    42.6730    10.8060 HW2           1 RES     
   10196 OW          53.2140    41.8630     0.1530 OW            1 RES     
   10197 HW1         52.8450    40.9350     0.1960 HW1           1 RES     
   10198 HW2         53.3180    42.2250     1.0790 HW2           1 RES     
   10199 OW           0.3130    14.4720    10.6380 OW            1 RES     
   10200 HW1          0.1440    15.2260    10.0040 HW1           1 RES     
   10201 HW2          1.2780    14.4660    10.9000 HW2           1 RES     
   10202 OW          45.7980    13.7930    11.0220 OW            1 RES     
   10203 HW1         46.2230    14.6470    11.3210 HW1           1 RES     
   10204 HW2         45.2440    13.9630    10.2070 HW2           1 RES     
   10205 OW          25.4680    40.5720    21.4710 OW            1 RES     
   10206 HW1         25.8740    39.6920    21.7140 HW1           1 RES     
   10207 HW2         26.1750    41.2800    21.4790 HW2           1 RES     
   10208 OW          19.0640    18.7870    17.5730 OW            1 RES     
   10209 HW1         18.5440    19.6400    17.5430 HW1           1 RES     
   10210 HW2         19.9660    18.9600    17.9680 HW2           1 RES     
   10211 OW          29.1050    26.6250    10.4160 OW            1 RES     
   10212 HW1         29.7040    25.9830    10.8930 HW1           1 RES     
   10213 HW2         29.5540    27.5160    10.3500 HW2           1 RES     
   10214 OW          38.7130    34.8030     4.6730 OW            1 RES     
   10215 HW1         38.9880    34.1600     3.9590 HW1           1 RES     
   10216 HW2         39.1430    34.5460     5.5380 HW2           1 RES     
   10217 OW          50.1090    48.2950    21.8550 OW            1 RES     
   10218 HW1         50.3360    47.5000    22.4170 HW1           1 RES     
   10219 HW2         50.9330    48.8400    21.7000 HW2           1 RES     
   10220 OW          41.4500     6.3220    16.9350 OW            1 RES     
   10221 HW1         41.3310     7.0000    17.6590 HW1           1 RES     
   10222 HW2         42.3800     5.9550    16.9700 HW2           1 RES     
   10223 OW          14.5430    37.5000    20.6920 OW            1 RES     
   10224 HW1         15.2540    38.1740    20.4940 HW1           1 RES     
   10225 HW2         13.8220    37.5630    20.0010 HW2           1 RES     
   10226 OW          17.5060    18.2370    10.2060 OW            1 RES     
   10227 HW1         16.6170    17.7860    10.1290 HW1           1 RES     
   10228 HW2         17.7430    18.6570     9.3300 HW2           1 RES     
   10229 OW          58.9240    20.3810    16.6170 OW            1 RES     
   10230 HW1         58.7860    20.4220    15.6280 HW1           1 RES     
   10231 HW2         58.9270    21.3080    16.9930 HW2           1 RES     
   10232 OW          44.4420    29.7090    23.8690 OW            1 RES     
   10233 HW1         44.6100    30.5160    23.3030 HW1           1 RES     
   10234 HW2         43.4630    29.6290    24.0530 HW2           1 RES     
   10235 OW          38.7080     9.8610    16.2240 OW            1 RES     
   10236 HW1         38.1500    10.4320    16.8250 HW1           1 RES     
   10237 HW2         38.5220     8.8960    16.4130 HW2           1 RES     
   10238 OW           3.8070    14.1070    11.4700 OW            1 RES     
   10239 HW1          3.4130    15.0130    11.3190 HW1           1 RES     
   10240 HW2          3.0800    13.4610    11.7000 HW2           1 RES     
   10241 OW          48.7530     6.5170    18.9380 OW            1 RES     
   10242 HW1         48.3150     6.6650    19.8240 HW1           1 RES     
   10243 HW2         49.2150     5.6300    18.9380 HW2           1 RES     
   10244 OW          27.5320     2.1220     6.6650 OW            1 RES     
   10245 HW1         28.1390     1.5750     6.0890 HW1           1 RES     
   10246 HW2         26.6420     1.6700     6.7360 HW2           1 RES     
   10247 OW          57.2440    37.6600    19.8010 OW            1 RES     
   10248 HW1         57.7880    37.5280    18.9730 HW1           1 RES     
   10249 HW2         57.5730    38.4660    20.2920 HW2           1 RES     
   10250 OW          22.2210    21.9310    21.4230 OW            1 RES     
   10251 HW1         22.9780    21.2820    21.4850 HW1           1 RES     
   10252 HW2         21.3530    21.4350    21.4380 HW2           1 RES     
   10253 OW           2.6440    36.7560     9.6110 OW            1 RES     
   10254 HW1          2.0540    37.4870     9.2690 HW1           1 RES     
   10255 HW2          3.4240    37.1540    10.0930 HW2           1 RES     
   10256 OW           1.2030    29.5890    13.0850 OW            1 RES     
   10257 HW1          2.0120    29.7400    13.6520 HW1           1 RES     
   10258 HW2          0.6870    30.4420    13.0060 HW2           1 RES     
   10259 OW          33.9300    44.0910    17.8660 OW            1 RES     
   10260 HW1         33.6020    45.0320    17.9450 HW1           1 RES     
   10261 HW2         34.9130    44.0640    18.0490 HW2           1 RES     
   10262 OW          54.8460     1.0310    12.9070 OW            1 RES     
   10263 HW1         55.5490     0.3230    12.8530 HW1           1 RES     
   10264 HW2         55.2760     1.9160    13.0900 HW2           1 RES     
   10265 OW          57.3740     8.6380     7.7720 OW            1 RES     
   10266 HW1         56.7790     9.1230     8.4110 HW1           1 RES     
   10267 HW2         58.2580     8.4610     8.2070 HW2           1 RES     
   10268 OW          26.0250    41.3080     3.4100 OW            1 RES     
   10269 HW1         25.2480    41.7610     3.8450 HW1           1 RES     
   10270 HW2         25.7560    40.3880     3.1220 HW2           1 RES     
   10271 OW          61.8690    25.5890    12.1280 OW            1 RES     
   10272 HW1         62.2890    25.5970    13.0350 HW1           1 RES     
   10273 HW2         62.4440    26.1000    11.4890 HW2           1 RES     
   10274 OW          41.8290    17.5420    16.4440 OW            1 RES     
   10275 HW1         41.5370    18.2050    17.1320 HW1           1 RES     
   10276 HW2         41.0260    17.1620    15.9850 HW2           1 RES     
   10277 OW          60.1330    41.5700     2.9030 OW            1 RES     
   10278 HW1         59.3700    41.2910     2.3210 HW1           1 RES     
   10279 HW2         59.7800    41.9640     3.7520 HW2           1 RES     
   10280 OW          17.2160    36.6960     4.0540 OW            1 RES     
   10281 HW1         17.0710    35.7410     4.3070 HW1           1 RES     
   10282 HW2         16.8310    36.8630     3.1460 HW2           1 RES     
   10283 OW          18.7600    12.9570    12.3660 OW            1 RES     
   10284 HW1         19.6710    12.5690    12.2300 HW1           1 RES     
   10285 HW2         18.8210    13.9550    12.3780 HW2           1 RES     
   10286 OW          39.1420    24.9140    11.0460 OW            1 RES     
   10287 HW1         38.9780    25.8000    10.6130 HW1           1 RES     
   10288 HW2         38.7710    24.1860    10.4690 HW2           1 RES     
   10289 OW           6.7040    32.4580    18.2160 OW            1 RES     
   10290 HW1          7.0750    31.8660    18.9310 HW1           1 RES     
   10291 HW2          7.4540    32.9290    17.7500 HW2           1 RES     
   10292 OW          27.3080    36.9110    14.9060 OW            1 RES     
   10293 HW1         27.6790    37.2200    15.7810 HW1           1 RES     
   10294 HW2         27.1930    35.9170    14.9240 HW2           1 RES     
   10295 OW          17.7700    15.4350     7.4390 OW            1 RES     
   10296 HW1         18.2040    16.0340     8.1100 HW1           1 RES     
   10297 HW2         18.3730    15.3260     6.6490 HW2           1 RES     
   10298 OW          51.5520    33.3120    23.7940 OW            1 RES     
   10299 HW1         52.2770    32.7550    23.3910 HW1           1 RES     
   10300 HW2         50.7740    32.7280    24.0290 HW2           1 RES     
   10301 OW          51.3070    12.7730     2.6160 OW            1 RES     
   10302 HW1         51.0700    11.8740     2.2490 HW1           1 RES     
   10303 HW2         51.3840    12.7180     3.6120 HW2           1 RES     
   10304 OW          10.4840    47.9920    11.1110 OW            1 RES     
   10305 HW1         10.1940    48.8420    11.5480 HW1           1 RES     
   10306 HW2         11.3080    48.1600    10.5680 HW2           1 RES     
   10307 OW          40.4250     3.5470    22.9010 OW            1 RES     
   10308 HW1         41.3980     3.7710    22.8590 HW1           1 RES     
   10309 HW2         39.9280     4.2980    23.3360 HW2           1 RES     
   10310 OW          55.0080     8.7220    15.4320 OW            1 RES     
   10311 HW1         55.8300     8.8320    14.8740 HW1           1 RES     
   10312 HW2         55.1550     9.1410    16.3290 HW2           1 RES     
   10313 OW           1.4830    30.7360    24.3900 OW            1 RES     
   10314 HW1          2.3450    31.1440    24.6900 HW1           1 RES     
   10315 HW2          0.8270    31.4610    24.1760 HW2           1 RES     
   10316 OW          25.8370    14.7830     7.8190 OW            1 RES     
   10317 HW1         26.8210    14.8980     7.6910 HW1           1 RES     
   10318 HW2         25.4120    15.6770     7.9610 HW2           1 RES     
   10319 OW           5.2470    26.6970     3.5930 OW            1 RES     
   10320 HW1          6.2320    26.7400     3.7590 HW1           1 RES     
   10321 HW2          4.9690    25.7430     3.4810 HW2           1 RES     
   10322 OW          48.9370    10.4210    22.1760 OW            1 RES     
   10323 HW1         48.0040    10.7140    22.3840 HW1           1 RES     
   10324 HW2         49.5140    11.2240    22.0280 HW2           1 RES     
   10325 OW          53.3610    20.5250     1.8040 OW            1 RES     
   10326 HW1         53.1220    21.4440     2.1180 HW1           1 RES     
   10327 HW2         54.1900    20.2180     2.2730 HW2           1 RES     
   10328 OW          57.5970    34.2010     1.8020 OW            1 RES     
   10329 HW1         56.6300    33.9600     1.7270 HW1           1 RES     
   10330 HW2         57.7010    35.1920     1.7150 HW2           1 RES     
   10331 OW          13.4350     9.4840    15.4260 OW            1 RES     
   10332 HW1         13.8380     9.0120    14.6420 HW1           1 RES     
   10333 HW2         13.8840     9.1780    16.2660 HW2           1 RES     
   10334 OW           0.1860    20.2840    12.5210 OW            1 RES     
   10335 HW1          0.3110    21.2710    12.4300 HW1           1 RES     
   10336 HW2          1.0550    19.8200    12.3470 HW2           1 RES     
   10337 OW           0.9770    21.8990     9.8570 OW            1 RES     
   10338 HW1          0.6650    20.9500     9.8670 HW1           1 RES     
   10339 HW2          1.9730    21.9220     9.7620 HW2           1 RES     
   10340 OW          58.6750     6.6660    14.0130 OW            1 RES     
   10341 HW1         58.8300     7.4250    13.3810 HW1           1 RES     
   10342 HW2         59.4370     6.6070    14.6570 HW2           1 RES     
   10343 OW          26.4520    15.6800    17.8830 OW            1 RES     
   10344 HW1         25.9750    14.8950    17.4890 HW1           1 RES     
   10345 HW2         27.1660    15.3590    18.5050 HW2           1 RES     
   10346 OW          60.4970    18.1740    15.8610 OW            1 RES     
   10347 HW1         60.6600    19.1600    15.8350 HW1           1 RES     
   10348 HW2         61.3510    17.7000    16.0730 HW2           1 RES     
   10349 OW           7.9580    33.8480    20.2820 OW            1 RES     
   10350 HW1          8.7440    33.2430    20.4040 HW1           1 RES     
   10351 HW2          8.2080    34.6020    19.6740 HW2           1 RES     
   10352 OW          30.6000     1.1410     6.1760 OW            1 RES     
   10353 HW1         31.2270     1.8670     5.8950 HW1           1 RES     
   10354 HW2         30.4050     0.5480     5.3940 HW2           1 RES     
   10355 OW          55.0560    17.9250    14.1980 OW            1 RES     
   10356 HW1         54.1020    17.9430    13.9010 HW1           1 RES     
   10357 HW2         55.3000    16.9990    14.4850 HW2           1 RES     
   10358 OW          30.3790    45.8340     5.0570 OW            1 RES     
   10359 HW1         30.9100    45.1060     4.6260 HW1           1 RES     
   10360 HW2         30.6840    46.7210     4.7100 HW2           1 RES     
   10361 OW          21.9090    13.0420    24.2310 OW            1 RES     
   10362 HW1         22.6890    13.1880    23.6230 HW1           1 RES     
   10363 HW2         22.2280    12.6550    25.0960 HW2           1 RES     
   10364 OW          30.6840    17.2050     8.0360 OW            1 RES     
   10365 HW1         30.9490    18.0710     8.4570 HW1           1 RES     
   10366 HW2         31.4830    16.6050     7.9750 HW2           1 RES     
   10367 OW          16.2120     8.3150     3.0330 OW            1 RES     
   10368 HW1         15.7190     7.7070     2.4120 HW1           1 RES     
   10369 HW2         16.3160     9.2140     2.6070 HW2           1 RES     
   10370 OW          19.9180     5.0990     3.3360 OW            1 RES     
   10371 HW1         20.2730     4.7840     2.4570 HW1           1 RES     
   10372 HW2         19.8900     6.0990     3.3460 HW2           1 RES     
   10373 OW          60.6460    46.4050    19.9460 OW            1 RES     
   10374 HW1         59.9430    47.0860    19.7430 HW1           1 RES     
   10375 HW2         60.3290    45.8060    20.6810 HW2           1 RES     
   10376 OW           0.0690    14.4610     0.5640 OW            1 RES     
   10377 HW1          0.8280    15.0660     0.8040 HW1           1 RES     
   10378 HW2          0.3140    13.5160     0.7790 HW2           1 RES     
   10379 OW           8.3010    20.2760    15.0590 OW            1 RES     
   10380 HW1          8.7640    19.4170    15.2750 HW1           1 RES     
   10381 HW2          7.3110    20.1280    15.0500 HW2           1 RES     
   10382 OW          21.4910     1.8170    17.5420 OW            1 RES     
   10383 HW1         22.3830     2.2310    17.3660 HW1           1 RES     
   10384 HW2         21.0210     2.3280    18.2620 HW2           1 RES     
   10385 OW          55.3550    15.4650    17.5260 OW            1 RES     
   10386 HW1         55.7080    16.3950    17.4240 HW1           1 RES     
   10387 HW2         56.0820    14.8080    17.3260 HW2           1 RES     
   10388 OW          38.7930    32.9300    20.6880 OW            1 RES     
   10389 HW1         39.7880    33.0210    20.6930 HW1           1 RES     
   10390 HW2         38.3750    33.8390    20.6920 HW2           1 RES     
   10391 OW          34.7950    34.2820     8.5880 OW            1 RES     
   10392 HW1         35.3140    35.0610     8.2370 HW1           1 RES     
   10393 HW2         34.6280    34.4060     9.5660 HW2           1 RES     
   10394 OW           2.4250    36.1250    17.3250 OW            1 RES     
   10395 HW1          2.3800    36.9920    16.8290 HW1           1 RES     
   10396 HW2          2.4110    35.3670    16.6720 HW2           1 RES     
   10397 OW          46.2340    35.4980    17.6040 OW            1 RES     
   10398 HW1         45.3020    35.3240    17.9190 HW1           1 RES     
   10399 HW2         46.2540    36.3420    17.0690 HW2           1 RES     
   10400 OW           9.0060    42.5740     0.7120 OW            1 RES     
   10401 HW1          8.2900    43.2640     0.8140 HW1           1 RES     
   10402 HW2          9.9010    43.0210     0.7010 HW2           1 RES     
   10403 OW          15.3260    24.6850    11.8270 OW            1 RES     
   10404 HW1         15.3610    23.8540    11.2730 HW1           1 RES     
   10405 HW2         16.2540    25.0320    11.9670 HW2           1 RES     
   10406 OW          32.9080    42.2130     7.2940 OW            1 RES     
   10407 HW1         33.3040    41.8950     8.1550 HW1           1 RES     
   10408 HW2         32.5120    41.4370     6.8020 HW2           1 RES     
   10409 OW           8.8550     9.2100    19.0730 OW            1 RES     
   10410 HW1          9.8450     9.2580    19.2040 HW1           1 RES     
   10411 HW2          8.6290     9.4810    18.1370 HW2           1 RES     
   10412 OW          21.5040    14.3530    14.3070 OW            1 RES     
   10413 HW1         21.5610    13.4240    13.9440 HW1           1 RES     
   10414 HW2         20.5630    14.5460    14.5860 HW2           1 RES     
   10415 OW          37.6650    32.3480    16.3680 OW            1 RES     
   10416 HW1         36.7450    31.9730    16.4710 HW1           1 RES     
   10417 HW2         38.3150    31.6030    16.2180 HW2           1 RES     
   10418 OW          23.5710    43.4800     6.2640 OW            1 RES     
   10419 HW1         23.8100    42.6040     5.8470 HW1           1 RES     
   10420 HW2         22.7530    43.3700     6.8290 HW2           1 RES     
   10421 OW          21.0160    30.6610    23.7370 OW            1 RES     
   10422 HW1         20.3020    30.3650    24.3700 HW1           1 RES     
   10423 HW2         21.3270    31.5770    23.9890 HW2           1 RES     
   10424 OW           2.6450    35.9280    24.5680 OW            1 RES     
   10425 HW1          3.4890    35.4030    24.6740 HW1           1 RES     
   10426 HW2          1.8740    35.3010    24.4530 HW2           1 RES     
   10427 OW          45.7580    18.6290     3.3140 OW            1 RES     
   10428 HW1         45.5310    18.0160     2.5590 HW1           1 RES     
   10429 HW2         46.0460    19.5160     2.9500 HW2           1 RES     
   10430 OW           5.8100    39.7980    11.0680 OW            1 RES     
   10431 HW1          6.4480    40.4870    10.7250 HW1           1 RES     
   10432 HW2          4.9220    39.9150    10.6240 HW2           1 RES     
   10433 OW          37.2100     0.7850    12.1930 OW            1 RES     
   10434 HW1         36.7890     1.0090    13.0710 HW1           1 RES     
   10435 HW2         37.6020     1.6120    11.7900 HW2           1 RES     
   10436 OW          27.5530    37.5020    12.3430 OW            1 RES     
   10437 HW1         27.7140    38.4500    12.0690 HW1           1 RES     
   10438 HW2         27.9180    36.8860    11.6450 HW2           1 RES     
   10439 OW          41.2260    48.0630     7.7020 OW            1 RES     
   10440 HW1         40.4160    47.9970     7.1200 HW1           1 RES     
   10441 HW2         41.9850    48.4470     7.1760 HW2           1 RES     
   10442 OW          56.8170    42.6700    21.2930 OW            1 RES     
   10443 HW1         56.5910    41.9680    21.9670 HW1           1 RES     
   10444 HW2         57.3920    42.2720    20.5770 HW2           1 RES     
   10445 OW          36.6460    38.2330    19.9340 OW            1 RES     
   10446 HW1         37.2790    37.6440    20.4340 HW1           1 RES     
   10447 HW2         36.7380    38.0650    18.9520 HW2           1 RES     
   10448 OW          35.3160    18.5750     6.6660 OW            1 RES     
   10449 HW1         34.4240    18.3620     7.0640 HW1           1 RES     
   10450 HW2         36.0160    18.5410     7.3790 HW2           1 RES     
   10451 OW          15.6810    17.8590     6.9000 OW            1 RES     
   10452 HW1         16.3860    18.5210     6.6490 HW1           1 RES     
   10453 HW2         16.0580    17.2010     7.5510 HW2           1 RES     
   10454 OW          60.9330    47.9860     1.0610 OW            1 RES     
   10455 HW1         61.4420    47.1760     0.7740 HW1           1 RES     
   10456 HW2         59.9850    47.9120     0.7510 HW2           1 RES     
   10457 OW          34.4890    38.0890     7.2770 OW            1 RES     
   10458 HW1         34.9470    37.2300     7.5050 HW1           1 RES     
   10459 HW2         35.1100    38.8540     7.4500 HW2           1 RES     
   10460 OW          34.1860    18.5920     4.5620 OW            1 RES     
   10461 HW1         35.0910    19.0020     4.4470 HW1           1 RES     
   10462 HW2         34.0550    17.8760     3.8760 HW2           1 RES     
   10463 OW          38.4780     0.7050    20.5510 OW            1 RES     
   10464 HW1         38.5210     1.7000    20.4650 HW1           1 RES     
   10465 HW2         39.3720     0.3120    20.3360 HW2           1 RES     
   10466 OW          31.8390     1.8860    11.1070 OW            1 RES     
   10467 HW1         31.6940     0.9150    10.9170 HW1           1 RES     
   10468 HW2         30.9600     2.3640    11.0870 HW2           1 RES     
   10469 OW          43.2890    27.0140    13.8150 OW            1 RES     
   10470 HW1         43.6740    27.7160    13.2170 HW1           1 RES     
   10471 HW2         43.9370    26.8090    14.5490 HW2           1 RES     
   10472 OW          58.2660    37.4860    22.3620 OW            1 RES     
   10473 HW1         58.2580    36.4900    22.4370 HW1           1 RES     
   10474 HW2         59.1850    37.8290    22.5560 HW2           1 RES     
   10475 OW          29.8850    30.6170    12.9190 OW            1 RES     
   10476 HW1         29.8680    31.6160    12.8960 HW1           1 RES     
   10477 HW2         30.8330    30.2990    12.9250 HW2           1 RES     
   10478 OW           4.6850    47.9520     6.5760 OW            1 RES     
   10479 HW1          4.2730    48.8420     6.3820 HW1           1 RES     
   10480 HW2          3.9860    47.3310     6.9320 HW2           1 RES     
   10481 OW          53.3850    21.7630    20.5150 OW            1 RES     
   10482 HW1         53.8470    21.7860    21.4010 HW1           1 RES     
   10483 HW2         54.0470    21.9510    19.7890 HW2           1 RES     
   10484 OW          31.7330    25.8490     5.0300 OW            1 RES     
   10485 HW1         31.7070    24.9220     4.6590 HW1           1 RES     
   10486 HW2         32.3560    26.4100     4.4840 HW2           1 RES     
   10487 OW          20.5620    19.3730    20.6790 OW            1 RES     
   10488 HW1         20.3590    18.9120    21.5420 HW1           1 RES     
   10489 HW2         19.7070    19.6490    20.2390 HW2           1 RES     
   10490 OW          52.4680    26.9290    17.0920 OW            1 RES     
   10491 HW1         52.3000    27.2060    16.1460 HW1           1 RES     
   10492 HW2         51.6540    27.1130    17.6430 HW2           1 RES     
   10493 OW           9.3270    12.6590    18.6840 OW            1 RES     
   10494 HW1          9.0090    12.1590    17.8800 HW1           1 RES     
   10495 HW2         10.2950    12.8850    18.5770 HW2           1 RES     
   10496 OW          60.2250     5.1920     7.3670 OW            1 RES     
   10497 HW1         60.7120     4.3240     7.4590 HW1           1 RES     
   10498 HW2         60.1490     5.4310     6.3990 HW2           1 RES     
   10499 OW           2.3610    30.9820     4.6570 OW            1 RES     
   10500 HW1          3.2790    31.2510     4.9460 HW1           1 RES     
   10501 HW2          2.3990    30.0850     4.2160 HW2           1 RES     
   10502 OW          61.4230    12.2950    11.0190 OW            1 RES     
   10503 HW1         60.8450    12.7050    10.3140 HW1           1 RES     
   10504 HW2         61.0390    11.4130    11.2940 HW2           1 RES     
   10505 OW           0.0120     4.5320    16.7040 OW            1 RES     
   10506 HW1          0.2620     4.7240    17.6530 HW1           1 RES     
   10507 HW2          0.1190     5.3620    16.1570 HW2           1 RES     
   10508 OW           2.8690    34.2940     5.1890 OW            1 RES     
   10509 HW1          2.5020    33.3710     5.3020 HW1           1 RES     
   10510 HW2          2.4230    34.7380     4.4120 HW2           1 RES     
   10511 OW          25.9650    28.5630    21.1780 OW            1 RES     
   10512 HW1         26.7450    27.9740    20.9690 HW1           1 RES     
   10513 HW2         25.1160    28.0820    20.9590 HW2           1 RES     
   10514 OW          53.4220    28.2550    22.8010 OW            1 RES     
   10515 HW1         53.4760    27.2900    23.0570 HW1           1 RES     
   10516 HW2         53.1730    28.3310    21.8350 HW2           1 RES     
   10517 OW          24.2510     5.0410     4.5110 OW            1 RES     
   10518 HW1         24.3670     4.4810     5.3300 HW1           1 RES     
   10519 HW2         23.3120     4.9560     4.1770 HW2           1 RES     
   10520 OW          56.2660    11.5820    19.4930 OW            1 RES     
   10521 HW1         56.2790    12.3400    20.1430 HW1           1 RES     
   10522 HW2         56.9690    10.9160    19.7420 HW2           1 RES     
   10523 OW          45.8370    14.9260     3.9840 OW            1 RES     
   10524 HW1         45.1860    14.1690     3.9550 HW1           1 RES     
   10525 HW2         46.6340    14.7030     3.4220 HW2           1 RES     
   10526 OW          30.3840     2.3570     8.2500 OW            1 RES     
   10527 HW1         30.8980     1.5530     8.5460 HW1           1 RES     
   10528 HW2         29.4880     2.0740     7.9070 HW2           1 RES     
   10529 OW          33.6410    24.0790    17.0760 OW            1 RES     
   10530 HW1         33.4700    23.1070    17.2310 HW1           1 RES     
   10531 HW2         32.7940    24.5930    17.2160 HW2           1 RES     
   10532 OW          14.3570    19.2040    24.9770 OW            1 RES     
   10533 HW1         13.5300    18.7250    24.6840 HW1           1 RES     
   10534 HW2         15.1570    18.7740    24.5580 HW2           1 RES     
   10535 OW          51.5390    34.3250    10.3710 OW            1 RES     
   10536 HW1         51.8480    33.4580    10.7590 HW1           1 RES     
   10537 HW2         52.2620    35.0100    10.4650 HW2           1 RES     
   10538 OW          25.0420    32.9070    24.1100 OW            1 RES     
   10539 HW1         25.8250    33.3860    24.5060 HW1           1 RES     
   10540 HW2         24.2230    33.4740    24.2020 HW2           1 RES     
   10541 OW          23.5010    30.6770    19.1090 OW            1 RES     
   10542 HW1         23.9880    30.1340    18.4260 HW1           1 RES     
   10543 HW2         23.9250    31.5800    19.1820 HW2           1 RES     
   10544 OW          40.7510    35.8050    13.4260 OW            1 RES     
   10545 HW1         40.9460    36.2250    12.5400 HW1           1 RES     
   10546 HW2         39.8080    35.4730    13.4380 HW2           1 RES     
   10547 OW          50.5520    38.9790    19.8760 OW            1 RES     
   10548 HW1         50.8280    38.0200    19.8140 HW1           1 RES     
   10549 HW2         51.3200    39.5640    19.6130 HW2           1 RES     
   10550 OW          52.7500    40.2030    23.1920 OW            1 RES     
   10551 HW1         53.6100    40.7110    23.2050 HW1           1 RES     
   10552 HW2         52.0300    40.7560    23.6130 HW2           1 RES     
   10553 OW          61.5210    40.5830     4.6170 OW            1 RES     
   10554 HW1         60.6670    40.0640     4.6320 HW1           1 RES     
   10555 HW2         61.9270    40.5850     5.5320 HW2           1 RES     
   10556 OW          20.7690    40.6170    14.9990 OW            1 RES     
   10557 HW1         20.3170    39.9090    15.5400 HW1           1 RES     
   10558 HW2         21.6890    40.7760    15.3590 HW2           1 RES     
   10559 OW          21.4470     0.0210     8.9400 OW            1 RES     
   10560 HW1         20.4990     0.1910     9.2060 HW1           1 RES     
   10561 HW2         21.5190     0.0190     7.9430 HW2           1 RES     
   10562 OW          61.4660    16.0790     4.6940 OW            1 RES     
   10563 HW1         60.7590    16.5840     4.2000 HW1           1 RES     
   10564 HW2         61.4490    16.3370     5.6600 HW2           1 RES     
   10565 OW          31.6290    41.4300    22.9940 OW            1 RES     
   10566 HW1         32.1640    40.6000    23.1510 HW1           1 RES     
   10567 HW2         30.8240    41.2090    22.4440 HW2           1 RES     
   10568 OW          41.8490     9.5540    17.8240 OW            1 RES     
   10569 HW1         41.1910     9.4570    17.0780 HW1           1 RES     
   10570 HW2         42.4090    10.3690    17.6710 HW2           1 RES     
   10571 OW          36.3180     6.3670     1.9440 OW            1 RES     
   10572 HW1         36.7140     7.0220     1.3020 HW1           1 RES     
   10573 HW2         35.4780     5.9850     1.5570 HW2           1 RES     
   10574 OW          60.5350    36.0210     4.2380 OW            1 RES     
   10575 HW1         59.6960    36.5460     4.1060 HW1           1 RES     
   10576 HW2         60.3070    35.1060     4.5730 HW2           1 RES     
   10577 OW           7.3510    46.8550     2.7620 OW            1 RES     
   10578 HW1          7.8650    46.8460     1.9050 HW1           1 RES     
   10579 HW2          7.0420    47.7860     2.9560 HW2           1 RES     
   10580 OW          36.4030     9.6590     5.8050 OW            1 RES     
   10581 HW1         37.2690     9.3680     6.2110 HW1           1 RES     
   10582 HW2         36.2860    10.6440     5.9380 HW2           1 RES     
   10583 OW          46.9160     9.5790     5.6090 OW            1 RES     
   10584 HW1         47.1080    10.5280     5.8570 HW1           1 RES     
   10585 HW2         47.6920     9.0030     5.8650 HW2           1 RES     
   10586 OW          16.3110    41.2780    18.7490 OW            1 RES     
   10587 HW1         16.6670    42.1360    19.1190 HW1           1 RES     
   10588 HW2         16.9050    40.9620    18.0090 HW2           1 RES     
   10589 OW          48.1230    29.0130    21.1930 OW            1 RES     
   10590 HW1         48.4900    29.9420    21.2210 HW1           1 RES     
   10591 HW2         48.3470    28.5390    22.0440 HW2           1 RES     
   10592 OW          12.3180    13.1320     7.1790 OW            1 RES     
   10593 HW1         12.6370    12.1850     7.2010 HW1           1 RES     
   10594 HW2         12.8400    13.6440     6.4970 HW2           1 RES     
   10595 OW          32.0380    19.2820    13.8970 OW            1 RES     
   10596 HW1         32.8480    19.6730    14.3330 HW1           1 RES     
   10597 HW2         31.8000    18.4210    14.3470 HW2           1 RES     
   10598 OW          32.9510    10.1210    19.9430 OW            1 RES     
   10599 HW1         32.3960    10.1100    20.7750 HW1           1 RES     
   10600 HW2         32.3720     9.9170    19.1530 HW2           1 RES     
   10601 OW          19.3340     8.2590    17.9380 OW            1 RES     
   10602 HW1         18.3910     7.9550    18.0740 HW1           1 RES     
   10603 HW2         19.3350     9.1780    17.5440 HW2           1 RES     
   10604 OW          52.6450     9.5570    22.9100 OW            1 RES     
   10605 HW1         52.6750    10.0440    23.7820 HW1           1 RES     
   10606 HW2         53.5690     9.4900    22.5330 HW2           1 RES     
   10607 OW           4.9600    42.4940    13.9920 OW            1 RES     
   10608 HW1          5.4790    43.3170    13.7620 HW1           1 RES     
   10609 HW2          5.5440    41.6900    13.8830 HW2           1 RES     
   10610 OW          26.0330    27.1930     9.7960 OW            1 RES     
   10611 HW1         26.3990    28.0800     9.5150 HW1           1 RES     
   10612 HW2         26.2290    27.0440    10.7660 HW2           1 RES     
   10613 OW          12.2260    28.9160     4.3020 OW            1 RES     
   10614 HW1         13.0850    28.4130     4.3840 HW1           1 RES     
   10615 HW2         11.4660    28.2700     4.2310 HW2           1 RES     
   10616 OW          30.1250    11.7890    17.5110 OW            1 RES     
   10617 HW1         29.6850    12.5310    17.0070 HW1           1 RES     
   10618 HW2         31.0650    11.6780    17.1890 HW2           1 RES     
   10619 OW          11.1600     2.0080    21.6530 OW            1 RES     
   10620 HW1         10.2500     1.6110    21.5370 HW1           1 RES     
   10621 HW2         11.8380     1.2750    21.7140 HW2           1 RES     
   10622 OW          32.3690    11.8710    12.2460 OW            1 RES     
   10623 HW1         31.9210    12.1300    11.3910 HW1           1 RES     
   10624 HW2         32.8690    12.6570    12.6120 HW2           1 RES     
   10625 OW          34.9050    40.4040     5.3710 OW            1 RES     
   10626 HW1         34.9140    41.3800     5.1550 HW1           1 RES     
   10627 HW2         34.4590    39.9020     4.6300 HW2           1 RES     
   10628 OW          59.4660    30.6540     5.7670 OW            1 RES     
   10629 HW1         59.8600    30.5400     6.6790 HW1           1 RES     
   10630 HW2         58.4720    30.7420     5.8410 HW2           1 RES     
   10631 OW          33.7140     7.6430    13.9070 OW            1 RES     
   10632 HW1         32.7410     7.6030    13.6830 HW1           1 RES     
   10633 HW2         34.0690     8.5530    13.6920 HW2           1 RES     
   10634 OW          44.4050    30.5630     0.5570 OW            1 RES     
   10635 HW1         44.0900    29.7230     0.1160 HW1           1 RES     
   10636 HW2         45.2840    30.8360     0.1660 HW2           1 RES     
   10637 OW          16.3660    45.7910    18.0950 OW            1 RES     
   10638 HW1         16.1080    44.8290    18.1700 HW1           1 RES     
   10639 HW2         17.2980    45.9150    18.4370 HW2           1 RES     
   10640 OW           1.2910    11.3520     7.4790 OW            1 RES     
   10641 HW1          0.7110    12.1660     7.4660 HW1           1 RES     
   10642 HW2          2.1300    11.5310     6.9660 HW2           1 RES     
   10643 OW          55.0550    30.9060    20.3430 OW            1 RES     
   10644 HW1         54.8090    29.9480    20.4870 HW1           1 RES     
   10645 HW2         54.2240    31.4590    20.2840 HW2           1 RES     
   10646 OW          13.9020    47.5640     2.3790 OW            1 RES     
   10647 HW1         13.9990    48.5230     2.6450 HW1           1 RES     
   10648 HW2         12.9400    47.3680     2.1840 HW2           1 RES     
   10649 OW          23.5220    18.9530    19.8740 OW            1 RES     
   10650 HW1         23.6050    18.0010    20.1660 HW1           1 RES     
   10651 HW2         22.8530    19.0180    19.1340 HW2           1 RES     
   10652 OW           1.4110    14.6610    20.2470 OW            1 RES     
   10653 HW1          0.5070    14.4310    19.8880 HW1           1 RES     
   10654 HW2          1.9680    15.0600    19.5190 HW2           1 RES     
   10655 OW          56.6320    41.7450     1.0100 OW            1 RES     
   10656 HW1         55.7190    41.7090     0.6050 HW1           1 RES     
   10657 HW2         56.6990    42.5430     1.6090 HW2           1 RES     
   10658 OW           5.3670    35.7670    16.4060 OW            1 RES     
   10659 HW1          4.6340    36.3890    16.6790 HW1           1 RES     
   10660 HW2          6.1590    36.2980    16.1040 HW2           1 RES     
   10661 OW          11.0950    33.2510     1.0960 OW            1 RES     
   10662 HW1         10.8440    32.4980     0.4890 HW1           1 RES     
   10663 HW2         11.3920    32.8830     1.9780 HW2           1 RES     
   10664 OW          61.2870    34.1700    13.6150 OW            1 RES     
   10665 HW1         62.2470    34.2090    13.3390 HW1           1 RES     
   10666 HW2         61.2050    33.6470    14.4630 HW2           1 RES     
   10667 OW          27.4150    35.5420     5.8080 OW            1 RES     
   10668 HW1         27.7920    34.6240     5.9220 HW1           1 RES     
   10669 HW2         26.4160    35.4920     5.7860 HW2           1 RES     
   10670 OW          15.4780    28.9660    19.7290 OW            1 RES     
   10671 HW1         16.2330    29.5640    19.4630 HW1           1 RES     
   10672 HW2         15.6480    28.6010    20.6450 HW2           1 RES     
   10673 OW          36.4370     6.2970     7.9910 OW            1 RES     
   10674 HW1         35.5600     6.4080     8.4580 HW1           1 RES     
   10675 HW2         36.7580     7.1870     7.6670 HW2           1 RES     
   10676 OW           1.2850    10.2720     1.0020 OW            1 RES     
   10677 HW1          0.3140    10.5010     1.0660 HW1           1 RES     
   10678 HW2          1.6620    10.6490     0.1560 HW2           1 RES     
   10679 OW          22.1230    45.0020    11.0530 OW            1 RES     
   10680 HW1         22.9250    45.5980    11.0510 HW1           1 RES     
   10681 HW2         22.3870    44.0870    11.3580 HW2           1 RES     
   10682 OW           5.8440    26.3930    11.6470 OW            1 RES     
   10683 HW1          5.8110    25.3960    11.5980 HW1           1 RES     
   10684 HW2          4.9180    26.7630    11.5690 HW2           1 RES     
   10685 OW           2.1280    19.6660    18.0420 OW            1 RES     
   10686 HW1          1.5340    19.2970    17.3290 HW1           1 RES     
   10687 HW2          2.8930    19.0410    18.1960 HW2           1 RES     
   10688 OW          21.8670    45.2340    14.0530 OW            1 RES     
   10689 HW1         21.1370    45.1110    13.3820 HW1           1 RES     
   10690 HW2         22.6960    45.5490    13.5900 HW2           1 RES     
   10691 OW          21.6090    23.0180    19.5500 OW            1 RES     
   10692 HW1         21.4580    22.1830    19.0220 HW1           1 RES     
   10693 HW2         20.8240    23.1820    20.1470 HW2           1 RES     
   10694 OW          15.9030    15.4080    19.6470 OW            1 RES     
   10695 HW1         16.4540    14.9650    18.9410 HW1           1 RES     
   10696 HW2         16.4900    15.9800    20.2200 HW2           1 RES     
   10697 OW          32.6710     1.1810    21.1350 OW            1 RES     
   10698 HW1         33.2060     0.5350    21.6780 HW1           1 RES     
   10699 HW2         31.7140     1.1460    21.4220 HW2           1 RES     
   10700 OW          13.6710     3.7470     2.9110 OW            1 RES     
   10701 HW1         13.8910     4.5970     2.4330 HW1           1 RES     
   10702 HW2         13.8680     3.8520     3.8860 HW2           1 RES     
   10703 OW          19.9590     7.3620    22.5760 OW            1 RES     
   10704 HW1         19.5790     8.2670    22.3860 HW1           1 RES     
   10705 HW2         19.2170     6.6960    22.6480 HW2           1 RES     
   10706 OW          40.1420    15.0460    18.1000 OW            1 RES     
   10707 HW1         39.6770    15.7660    18.6140 HW1           1 RES     
   10708 HW2         39.6600    14.1790    18.2300 HW2           1 RES     
   10709 OW          23.9740     5.3860    17.2300 OW            1 RES     
   10710 HW1         24.2460     5.7540    16.3410 HW1           1 RES     
   10711 HW2         23.9970     6.1150    17.9150 HW2           1 RES     
   10712 OW          14.7640    19.8360    22.3470 OW            1 RES     
   10713 HW1         14.1190    20.1420    21.6480 HW1           1 RES     
   10714 HW2         14.8450    18.8400    22.3130 HW2           1 RES     
   10715 OW          35.5910    25.5390    24.8840 OW            1 RES     
   10716 HW1         35.1440    24.6450    24.8570 HW1           1 RES     
   10717 HW2         36.5500    25.4410    24.6160 HW2           1 RES     
   10718 OW          20.9210    40.4650    21.4250 OW            1 RES     
   10719 HW1         21.9130    40.3570    21.3720 HW1           1 RES     
   10720 HW2         20.5730    39.9730    22.2230 HW2           1 RES     
   10721 OW          21.1370    22.8490    12.1780 OW            1 RES     
   10722 HW1         21.0130    23.1730    13.1150 HW1           1 RES     
   10723 HW2         20.8150    23.5470    11.5380 HW2           1 RES     
   10724 OW          25.5560    25.0840     7.0490 OW            1 RES     
   10725 HW1         25.1590    24.3390     7.5830 HW1           1 RES     
   10726 HW2         25.0500    25.1880     6.1930 HW2           1 RES     
   10727 OW          41.7600    40.8490    17.0560 OW            1 RES     
   10728 HW1         42.4600    40.2430    17.4310 HW1           1 RES     
   10729 HW2         42.1190    41.7810    17.0030 HW2           1 RES     
   10730 OW           3.5540    22.7170    13.3430 OW            1 RES     
   10731 HW1          3.0340    22.5960    14.1880 HW1           1 RES     
   10732 HW2          3.4250    23.6480    13.0010 HW2           1 RES     
   10733 OW          15.3260    43.2610    24.2110 OW            1 RES     
   10734 HW1         14.8960    43.8270    24.9130 HW1           1 RES     
   10735 HW2         15.4460    43.7980    23.3760 HW2           1 RES     
   10736 OW          55.5490    37.1090    14.7020 OW            1 RES     
   10737 HW1         54.6730    36.8070    14.3290 HW1           1 RES     
   10738 HW2         55.9750    37.7570    14.0700 HW2           1 RES     
   10739 OW          57.9940    31.5020    15.7080 OW            1 RES     
   10740 HW1         58.1410    32.4010    15.2990 HW1           1 RES     
   10741 HW2         57.6570    30.8690    15.0100 HW2           1 RES     
   10742 OW          16.0990    23.0250    17.7710 OW            1 RES     
   10743 HW1         15.4450    22.2690    17.7720 HW1           1 RES     
   10744 HW2         15.6040    23.8940    17.7730 HW2           1 RES     
   10745 OW          26.5530    28.8430    16.5780 OW            1 RES     
   10746 HW1         25.5660    28.9690    16.6730 HW1           1 RES     
   10747 HW2         26.7820    27.8810    16.7270 HW2           1 RES     
   10748 OW          55.2830    11.2630    16.9740 OW            1 RES     
   10749 HW1         54.5250    11.8460    16.6820 HW1           1 RES     
   10750 HW2         56.1340    11.7870    16.9560 HW2           1 RES     
   10751 OW          41.6870    41.0260     6.1560 OW            1 RES     
   10752 HW1         42.5620    41.3480     6.5150 HW1           1 RES     
   10753 HW2         41.4620    41.5300     5.3220 HW2           1 RES     
   10754 OW          26.5730    26.5490    18.8800 OW            1 RES     
   10755 HW1         26.6550    26.0800    18.0020 HW1           1 RES     
   10756 HW2         27.2710    26.2070    19.5080 HW2           1 RES     
   10757 OW          17.9430    18.0900     0.3510 OW            1 RES     
   10758 HW1         17.4140    17.3160     0.0050 HW1           1 RES     
   10759 HW2         17.3540    18.6740     0.9090 HW2           1 RES     
   10760 OW          23.7290    28.4300    15.5010 OW            1 RES     
   10761 HW1         24.2690    27.7870    14.9580 HW1           1 RES     
   10762 HW2         22.8910    28.6620    15.0060 HW2           1 RES     
   10763 OW          48.9570    39.7590     6.3210 OW            1 RES     
   10764 HW1         49.4430    39.6970     7.1920 HW1           1 RES     
   10765 HW2         49.5910    39.5740     5.5710 HW2           1 RES     
   10766 OW          32.3330    16.3100    14.6690 OW            1 RES     
   10767 HW1         31.4440    16.3060    15.1260 HW1           1 RES     
   10768 HW2         32.5570    15.3830    14.3670 HW2           1 RES     
   10769 OW           3.6630    26.2250    19.5500 OW            1 RES     
   10770 HW1          2.7660    26.5330    19.8660 HW1           1 RES     
   10771 HW2          3.8700    25.3320    19.9490 HW2           1 RES     
   10772 OW          38.9480     3.2930     2.8750 OW            1 RES     
   10773 HW1         39.3100     2.5380     2.3290 HW1           1 RES     
   10774 HW2         39.6830     3.9400     3.0790 HW2           1 RES     
   10775 OW          48.8670    12.6440     3.4880 OW            1 RES     
   10776 HW1         48.6400    12.1710     2.6380 HW1           1 RES     
   10777 HW2         49.0230    13.6140     3.2990 HW2           1 RES     
   10778 OW           3.2670    44.7350     4.1050 OW            1 RES     
   10779 HW1          2.9980    45.6340     3.7600 HW1           1 RES     
   10780 HW2          3.1280    44.7020     5.0950 HW2           1 RES     
   10781 OW          36.1760    45.7070     0.7360 OW            1 RES     
   10782 HW1         36.1090    45.6180     1.7290 HW1           1 RES     
   10783 HW2         35.5380    45.0710     0.3000 HW2           1 RES     
   10784 OW          52.4850    46.9570     3.3030 OW            1 RES     
   10785 HW1         52.8100    47.3180     4.1760 HW1           1 RES     
   10786 HW2         51.6810    46.3820     3.4570 HW2           1 RES     
   10787 OW          49.7580    29.5200     3.4770 OW            1 RES     
   10788 HW1         50.6760    29.5820     3.0860 HW1           1 RES     
   10789 HW2         49.4000    30.4400     3.6370 HW2           1 RES     
   10790 OW          30.8020    24.5720    15.0210 OW            1 RES     
   10791 HW1         30.7670    24.9150    15.9590 HW1           1 RES     
   10792 HW2         31.7140    24.7290    14.6430 HW2           1 RES     
   10793 OW           7.9170     3.0360    24.1300 OW            1 RES     
   10794 HW1          7.3830     3.3380    24.9190 HW1           1 RES     
   10795 HW2          7.4440     2.2810    23.6750 HW2           1 RES     
   10796 OW           2.5040    13.3760     0.9650 OW            1 RES     
   10797 HW1          2.3790    12.8250     0.1410 HW1           1 RES     
   10798 HW2          2.8840    14.2670     0.7170 HW2           1 RES     
   10799 OW          49.7030    27.2740     3.5030 OW            1 RES     
   10800 HW1         50.6150    27.3710     3.1060 HW1           1 RES     
   10801 HW2         49.4230    26.3140     3.4650 HW2           1 RES     
   10802 OW          28.2350    31.8800     8.4800 OW            1 RES     
   10803 HW1         28.6420    32.7930     8.4740 HW1           1 RES     
   10804 HW2         27.2380    31.9600     8.4800 HW2           1 RES     
   10805 OW          28.0690     5.4570    23.7500 OW            1 RES     
   10806 HW1         27.1950     5.7190    24.1580 HW1           1 RES     
   10807 HW2         27.9600     4.5990    23.2490 HW2           1 RES     
   10808 OW          23.3860    13.0200    16.3060 OW            1 RES     
   10809 HW1         22.6440    13.2880    16.9200 HW1           1 RES     
   10810 HW2         23.2330    12.0850    15.9850 HW2           1 RES     
   10811 OW          15.9340    14.1170     8.5770 OW            1 RES     
   10812 HW1         15.8180    13.7850     9.5120 HW1           1 RES     
   10813 HW2         15.5810    13.4370     7.9340 HW2           1 RES     
   10814 OW           6.3920    11.8310    19.8560 OW            1 RES     
   10815 HW1          6.2990    12.8260    19.8270 HW1           1 RES     
   10816 HW2          5.4840    11.4110    19.8730 HW2           1 RES     
   10817 OW          11.5920    39.2350     0.7440 OW            1 RES     
   10818 HW1         11.4760    38.4210     0.1760 HW1           1 RES     
   10819 HW2         11.9890    38.9740     1.6240 HW2           1 RES     
   10820 OW          10.8850    38.4190     4.2370 OW            1 RES     
   10821 HW1         10.1790    38.9300     4.7270 HW1           1 RES     
   10822 HW2         11.7540    38.9100     4.2950 HW2           1 RES     
   10823 OW          56.3090    48.8370     9.3970 OW            1 RES     
   10824 HW1         56.9320    48.3960    10.0420 HW1           1 RES     
   10825 HW2         56.4050    48.4110     8.4970 HW2           1 RES     
   10826 OW          31.9660    36.9880    17.4450 OW            1 RES     
   10827 HW1         31.5690    37.8360    17.0940 HW1           1 RES     
   10828 HW2         32.9200    37.1470    17.6990 HW2           1 RES     
   10829 OW          51.7780    38.5650    24.5680 OW            1 RES     
   10830 HW1         52.7030    38.3080    24.8470 HW1           1 RES     
   10831 HW2         51.3170    37.7700    24.1710 HW2           1 RES     
   10832 OW          25.0760    16.6850    12.2030 OW            1 RES     
   10833 HW1         25.9450    17.1740    12.2610 HW1           1 RES     
   10834 HW2         24.3210    17.3400    12.2360 HW2           1 RES     
   10835 OW           9.5700     7.7050    13.4570 OW            1 RES     
   10836 HW1         10.0610     7.1500    12.7860 HW1           1 RES     
   10837 HW2         10.1620     7.8770    14.2450 HW2           1 RES     
   10838 OW          47.5590    29.8980     7.7190 OW            1 RES     
   10839 HW1         47.5150    28.9000     7.7190 HW1           1 RES     
   10840 HW2         46.6350    30.2730     7.6460 HW2           1 RES     
   10841 OW           4.7540    24.4780    22.7580 OW            1 RES     
   10842 HW1          5.7120    24.3720    23.0200 HW1           1 RES     
   10843 HW2          4.5930    25.4160    22.4510 HW2           1 RES     
   10844 OW           2.9310    47.8190    16.1570 OW            1 RES     
   10845 HW1          3.1780    48.5700    16.7680 HW1           1 RES     
   10846 HW2          2.1490    47.3240    16.5360 HW2           1 RES     
   10847 OW          39.3350    33.1400    11.6090 OW            1 RES     
   10848 HW1         39.4010    34.1310    11.7180 HW1           1 RES     
   10849 HW2         38.3720    32.8700    11.5890 HW2           1 RES     
   10850 OW          50.9240    37.2890     2.8860 OW            1 RES     
   10851 HW1         50.8090    36.4520     3.4200 HW1           1 RES     
   10852 HW2         51.8700    37.6040     2.9570 HW2           1 RES     
   10853 OW          60.4020    22.8520    12.6920 OW            1 RES     
   10854 HW1         61.3780    22.9350    12.4940 HW1           1 RES     
   10855 HW2         59.9710    23.7520    12.6310 HW2           1 RES     
   10856 OW          10.6620    11.6020    13.4510 OW            1 RES     
   10857 HW1         11.2160    12.4160    13.2830 HW1           1 RES     
   10858 HW2          9.6940    11.8510    13.4520 HW2           1 RES     
   10859 OW          44.2630    28.2040    18.3030 OW            1 RES     
   10860 HW1         44.8520    27.6750    18.9120 HW1           1 RES     
   10861 HW2         43.9450    27.6210    17.5550 HW2           1 RES     
   10862 OW           8.6600     6.8070    17.5620 OW            1 RES     
   10863 HW1          9.1460     7.2460    16.8070 HW1           1 RES     
   10864 HW2          7.8420     7.3380    17.7850 HW2           1 RES     
   10865 OW          32.3170     3.5570    23.5470 OW            1 RES     
   10866 HW1         33.1820     3.7810    23.9940 HW1           1 RES     
   10867 HW2         32.4560     2.7920    22.9170 HW2           1 RES     
   10868 OW          32.3650    44.6900    23.3100 OW            1 RES     
   10869 HW1         31.9500    45.5990    23.2910 HW1           1 RES     
   10870 HW2         31.6460    43.9950    23.2950 HW2           1 RES     
   10871 OW          56.2550    28.5480     4.7510 OW            1 RES     
   10872 HW1         56.5080    27.6130     4.5060 HW1           1 RES     
   10873 HW2         57.0820    29.0840     4.9220 HW2           1 RES     
   10874 OW          49.8350     7.4350    21.8120 OW            1 RES     
   10875 HW1         49.5990     8.3890    21.6280 HW1           1 RES     
   10876 HW2         49.4420     7.1570    22.6890 HW2           1 RES     
   10877 OW          38.8440    27.3030    23.5330 OW            1 RES     
   10878 HW1         39.3710    28.1510    23.4980 HW1           1 RES     
   10879 HW2         38.0080    27.4500    24.0620 HW2           1 RES     
   10880 OW          17.3370     6.5790    16.4660 OW            1 RES     
   10881 HW1         16.4430     6.4730    16.0310 HW1           1 RES     
   10882 HW2         17.4320     5.9060    17.2000 HW2           1 RES     
   10883 OW          25.5130    19.8270    16.1820 OW            1 RES     
   10884 HW1         24.5990    20.2300    16.1710 HW1           1 RES     
   10885 HW2         25.4390    18.8330    16.2570 HW2           1 RES     
   10886 OW          11.3450    21.8760    25.0950 OW            1 RES     
   10887 HW1         11.4700    20.9440    24.7580 HW1           1 RES     
   10888 HW2         10.4100    22.1770    24.9070 HW2           1 RES     
   10889 OW          31.4010    20.4800     4.6430 OW            1 RES     
   10890 HW1         31.5100    21.4530     4.8470 HW1           1 RES     
   10891 HW2         30.4410    20.2210     4.7570 HW2           1 RES     
   10892 OW          21.3750    32.1600     1.7910 OW            1 RES     
   10893 HW1         20.5370    32.2700     2.3260 HW1           1 RES     
   10894 HW2         21.9490    32.9720     1.8990 HW2           1 RES     
   10895 OW           8.3100    14.7870    12.6170 OW            1 RES     
   10896 HW1          9.2030    14.3420    12.5480 HW1           1 RES     
   10897 HW2          8.0860    14.9380    13.5800 HW2           1 RES     
   10898 OW          44.6840    47.9030    17.3950 OW            1 RES     
   10899 HW1         45.1180    47.2920    18.0570 HW1           1 RES     
   10900 HW2         45.2920    48.6740    17.2040 HW2           1 RES     
   10901 OW          52.5720    29.9890    12.1870 OW            1 RES     
   10902 HW1         52.5360    29.0580    12.5480 HW1           1 RES     
   10903 HW2         53.1150    30.0010    11.3470 HW2           1 RES     
   10904 OW          58.9190    32.7860     8.6420 OW            1 RES     
   10905 HW1         59.1290    33.6620     8.2090 HW1           1 RES     
   10906 HW2         59.6440    32.1290     8.4350 HW2           1 RES     
   10907 OW          56.6430    31.1760     9.7370 OW            1 RES     
   10908 HW1         56.4680    30.2160     9.5240 HW1           1 RES     
   10909 HW2         57.6070    31.2950     9.9780 HW2           1 RES     
   10910 OW          59.1390     1.9790     4.9290 OW            1 RES     
   10911 HW1         59.1160     1.0810     5.3660 HW1           1 RES     
   10912 HW2         59.1270     2.6920     5.6300 HW2           1 RES     
   10913 OW          11.5940    13.8390    16.7210 OW            1 RES     
   10914 HW1         12.0890    14.5100    17.2720 HW1           1 RES     
   10915 HW2         12.1850    13.5110    15.9840 HW2           1 RES     
   10916 OW          35.0890    32.4570     2.1990 OW            1 RES     
   10917 HW1         35.1450    31.5230     1.8460 HW1           1 RES     
   10918 HW2         35.6950    33.0510     1.6680 HW2           1 RES     
   10919 OW          36.0590    47.2570     9.9030 OW            1 RES     
   10920 HW1         36.8900    47.5240     9.4150 HW1           1 RES     
   10921 HW2         36.1290    46.2990    10.1830 HW2           1 RES     
   10922 OW          22.1980     8.5550     4.2440 OW            1 RES     
   10923 HW1         22.9100     9.1140     3.8200 HW1           1 RES     
   10924 HW2         21.4230     8.4700     3.6170 HW2           1 RES     
   10925 OW          21.3110    40.4450    12.1930 OW            1 RES     
   10926 HW1         21.7360    40.1610    13.0510 HW1           1 RES     
   10927 HW2         21.9150    41.0840    11.7160 HW2           1 RES     
   10928 OW          49.7190    33.2030     9.5260 OW            1 RES     
   10929 HW1         48.7920    33.3100     9.1690 HW1           1 RES     
   10930 HW2         50.3750    33.2450     8.7720 HW2           1 RES     
   10931 OW          24.4890    35.4460     3.1740 OW            1 RES     
   10932 HW1         23.5660    35.7730     3.3760 HW1           1 RES     
   10933 HW2         24.5120    35.0630     2.2500 HW2           1 RES     
   10934 OW          13.1360    47.3650    15.2470 OW            1 RES     
   10935 HW1         13.1700    47.1180    14.2790 HW1           1 RES     
   10936 HW2         12.3000    46.9990    15.6560 HW2           1 RES     
   10937 OW          32.5050    13.8440    22.7110 OW            1 RES     
   10938 HW1         32.7520    14.7460    23.0630 HW1           1 RES     
   10939 HW2         33.1660    13.5640    22.0150 HW2           1 RES     
   10940 OW          54.5190     1.6410    18.4380 OW            1 RES     
   10941 HW1         54.3400     0.6580    18.4090 HW1           1 RES     
   10942 HW2         53.6690     2.1410    18.2680 HW2           1 RES     
   10943 OW          37.3640    26.9550    17.2290 OW            1 RES     
   10944 HW1         36.9230    27.8440    17.3500 HW1           1 RES     
   10945 HW2         38.3370    27.0880    17.0360 HW2           1 RES     
   10946 OW          27.9550    10.5250     4.7190 OW            1 RES     
   10947 HW1         27.2030    11.1830     4.7030 HW1           1 RES     
   10948 HW2         28.8230    11.0130     4.8110 HW2           1 RES     
   10949 OW           2.5180     1.5430     8.7920 OW            1 RES     
   10950 HW1          3.2970     1.8850     9.3150 HW1           1 RES     
   10951 HW2          1.7850     2.2230     8.8000 HW2           1 RES     
   10952 OW          41.8240    17.0980     2.7130 OW            1 RES     
   10953 HW1         40.8260    17.0770     2.7500 HW1           1 RES     
   10954 HW2         42.1940    17.0070     3.6380 HW2           1 RES     
   10955 OW          28.0230    13.8930    22.8600 OW            1 RES     
   10956 HW1         27.8200    14.8720    22.8760 HW1           1 RES     
   10957 HW2         27.2980    13.4100    22.3680 HW2           1 RES     
   10958 OW           1.6320    18.9220     8.7240 OW            1 RES     
   10959 HW1          0.6330    18.9300     8.7320 HW1           1 RES     
   10960 HW2          1.9580    17.9760     8.7220 HW2           1 RES     
   10961 OW          47.2610    25.7570     9.6800 OW            1 RES     
   10962 HW1         48.0020    26.3730     9.4150 HW1           1 RES     
   10963 HW2         47.6210    24.8300     9.7920 HW2           1 RES     
   10964 OW          37.5510    13.8770     4.0640 OW            1 RES     
   10965 HW1         38.4240    13.4460     3.8360 HW1           1 RES     
   10966 HW2         37.3740    14.6290     3.4290 HW2           1 RES     
   10967 OW          11.7440    21.1700     7.6150 OW            1 RES     
   10968 HW1         10.7680    21.0990     7.4150 HW1           1 RES     
   10969 HW2         12.1070    20.2650     7.8370 HW2           1 RES     
   10970 OW          37.6230    44.3810    11.0160 OW            1 RES     
   10971 HW1         37.8970    44.0110    11.9040 HW1           1 RES     
   10972 HW2         37.4420    43.6290    10.3820 HW2           1 RES     
   10973 OW           5.1780     2.4200    15.7360 OW            1 RES     
   10974 HW1          4.3790     2.5150    16.3280 HW1           1 RES     
   10975 HW2          5.9470     2.0630    16.2670 HW2           1 RES     
   10976 OW          19.1870    39.2780     7.0110 OW            1 RES     
   10977 HW1         19.7760    39.9680     7.4310 HW1           1 RES     
   10978 HW2         18.4870    39.7300     6.4560 HW2           1 RES     
   10979 OW          23.5480    30.5700    16.0450 OW            1 RES     
   10980 HW1         22.7020    30.3690    16.5370 HW1           1 RES     
   10981 HW2         23.7780    31.5370    16.1570 HW2           1 RES     
   10982 OW          48.5280    42.1900    17.1820 OW            1 RES     
   10983 HW1         48.8210    41.2450    17.3240 HW1           1 RES     
   10984 HW2         49.1550    42.6430    16.5480 HW2           1 RES     
   10985 OW          57.6770     7.5950    19.3530 OW            1 RES     
   10986 HW1         57.2100     8.3920    18.9730 HW1           1 RES     
   10987 HW2         58.3210     7.2320    18.6790 HW2           1 RES     
   10988 OW          41.6290    20.2640    16.1130 OW            1 RES     
   10989 HW1         42.2870    20.8180    15.6040 HW1           1 RES     
   10990 HW2         40.7220    20.3610    15.7030 HW2           1 RES     
   10991 OW           1.9480     5.6710    10.9830 OW            1 RES     
   10992 HW1          1.4890     5.0450    11.6130 HW1           1 RES     
   10993 HW2          1.2680     6.1130    10.3970 HW2           1 RES     
   10994 OW          55.0130    45.5350     9.8530 OW            1 RES     
   10995 HW1         54.2900    46.0680     9.4160 HW1           1 RES     
   10996 HW2         55.7370    45.3460     9.1880 HW2           1 RES     
   10997 OW          11.2360    43.5910    10.5650 OW            1 RES     
   10998 HW1         11.2690    42.6140    10.3570 HW1           1 RES     
   10999 HW2         10.3000    43.9250    10.4510 HW2           1 RES     
   11000 OW          56.1980    11.9410     5.9820 OW            1 RES     
   11001 HW1         57.1810    11.8460     6.1400 HW1           1 RES     
   11002 HW2         55.7300    11.1080     6.2780 HW2           1 RES     
   11003 OW          42.3290    11.7810    13.4130 OW            1 RES     
   11004 HW1         41.8680    12.5320    12.9410 HW1           1 RES     
   11005 HW2         42.9490    11.3190    12.7790 HW2           1 RES     
   11006 OW          49.0990    21.3090    10.8420 OW            1 RES     
   11007 HW1         49.0230    21.4080     9.8500 HW1           1 RES     
   11008 HW2         48.3940    21.8630    11.2870 HW2           1 RES     
   11009 OW          36.0240    46.8730    21.8700 OW            1 RES     
   11010 HW1         35.2330    46.4710    21.4100 HW1           1 RES     
   11011 HW2         36.2730    46.3090    22.6580 HW2           1 RES     
   11012 OW           0.0340    31.8380    14.5890 OW            1 RES     
   11013 HW1          0.2480    32.5740    13.9470 HW1           1 RES     
   11014 HW2          0.8330    31.6530    15.1630 HW2           1 RES     
   11015 OW          60.8770    19.6030     1.8250 OW            1 RES     
   11016 HW1         61.8450    19.8150     1.6890 HW1           1 RES     
   11017 HW2         60.3420    20.4470     1.7840 HW2           1 RES     
   11018 OW          58.4860    17.1440    12.9380 OW            1 RES     
   11019 HW1         58.7350    16.4970    13.6580 HW1           1 RES     
   11020 HW2         58.6800    16.7390    12.0440 HW2           1 RES     
   11021 OW          23.5350    34.9350    17.6300 OW            1 RES     
   11022 HW1         22.5930    35.2500    17.5220 HW1           1 RES     
   11023 HW2         23.5520    33.9350    17.6620 HW2           1 RES     
   11024 OW          56.7620    21.1630    12.9910 OW            1 RES     
   11025 HW1         57.0280    20.5740    13.7540 HW1           1 RES     
   11026 HW2         56.6170    22.0950    13.3230 HW2           1 RES     
   11027 OW          56.8620    17.2980     6.7470 OW            1 RES     
   11028 HW1         57.3580    16.4410     6.8860 HW1           1 RES     
   11029 HW2         55.8780    17.1220     6.7710 HW2           1 RES     
   11030 OW          32.4480    34.4860    16.4450 OW            1 RES     
   11031 HW1         33.0350    35.2670    16.2350 HW1           1 RES     
   11032 HW2         32.6870    34.1210    17.3450 HW2           1 RES     
   11033 OW          13.7290    17.9640    14.5260 OW            1 RES     
   11034 HW1         13.9280    18.3630    13.6320 HW1           1 RES     
   11035 HW2         14.5370    17.4800    14.8630 HW2           1 RES     
   11036 OW          37.3850    40.7620    17.9290 OW            1 RES     
   11037 HW1         37.1480    41.6720    18.2680 HW1           1 RES     
   11038 HW2         37.9170    40.8480    17.0860 HW2           1 RES     
   11039 OW          13.3860     4.9400    21.9360 OW            1 RES     
   11040 HW1         13.7340     5.0190    22.8700 HW1           1 RES     
   11041 HW2         14.1490     4.7860    21.3080 HW2           1 RES     
   11042 OW          56.6140    11.1470     3.6570 OW            1 RES     
   11043 HW1         57.3850    10.5920     3.3440 HW1           1 RES     
   11044 HW2         55.9480    10.5620     4.1190 HW2           1 RES     
   11045 OW          22.0540     8.7080    12.5480 OW            1 RES     
   11046 HW1         22.3980     7.8980    13.0220 HW1           1 RES     
   11047 HW2         21.0630     8.7680    12.6640 HW2           1 RES     
   11048 OW          11.8980    36.9190    21.7610 OW            1 RES     
   11049 HW1         12.4850    36.1250    21.9160 HW1           1 RES     
   11050 HW2         10.9640    36.6130    21.5750 HW2           1 RES     
   11051 OW          51.3310    26.7990     7.2740 OW            1 RES     
   11052 HW1         50.3530    26.8540     7.0750 HW1           1 RES     
   11053 HW2         51.5410    25.9070     7.6730 HW2           1 RES     
   11054 OW           0.1600    32.0710     6.6120 OW            1 RES     
   11055 HW1          0.9270    32.0880     7.2520 HW1           1 RES     
   11056 HW2          0.0000    32.9930     6.2580 HW2           1 RES     
   11057 OW          27.2360     0.5320    15.3270 OW            1 RES     
   11058 HW1         27.3710     1.5190    15.4010 HW1           1 RES     
   11059 HW2         26.8300     0.3160    14.4380 HW2           1 RES     
   11060 OW          54.1370     5.5320    14.7650 OW            1 RES     
   11061 HW1         54.3540     4.6160    14.4300 HW1           1 RES     
   11062 HW2         53.2200     5.5330    15.1650 HW2           1 RES     
   11063 OW          50.7750     7.4140    10.3120 OW            1 RES     
   11064 HW1         51.6100     7.1180    10.7750 HW1           1 RES     
   11065 HW2         49.9860     7.2380    10.9010 HW2           1 RES     
   11066 OW          62.4030    21.9600     0.2990 OW            1 RES     
   11067 HW1         61.4110    22.0820     0.3050 HW1           1 RES     
   11068 HW2         62.6220    21.0260     0.0160 HW2           1 RES     
   11069 OW          13.2440    16.9700    10.4850 OW            1 RES     
   11070 HW1         12.5620    16.2390    10.4560 HW1           1 RES     
   11071 HW2         12.7820    17.8570    10.4880 HW2           1 RES     
   11072 OW          18.8310     1.4100     6.7300 OW            1 RES     
   11073 HW1         19.8070     1.4770     6.5300 HW1           1 RES     
   11074 HW2         18.4290     2.3250     6.7480 HW2           1 RES     
   11075 OW          30.6660    42.5450    11.9520 OW            1 RES     
   11076 HW1         30.0000    43.2220    11.6390 HW1           1 RES     
   11077 HW2         31.5340    42.9990    12.1540 HW2           1 RES     
   11078 OW           4.4090    40.4720    18.4170 OW            1 RES     
   11079 HW1          4.5770    41.3790    18.8020 HW1           1 RES     
   11080 HW2          4.6660    39.7730    19.0840 HW2           1 RES     
   11081 OW          56.2990    12.1570    10.6810 OW            1 RES     
   11082 HW1         57.1190    12.6130    11.0250 HW1           1 RES     
   11083 HW2         56.4660    11.1730    10.6180 HW2           1 RES     
   11084 OW          20.9430    45.0520    20.7000 OW            1 RES     
   11085 HW1         21.8000    45.5000    20.9520 HW1           1 RES     
   11086 HW2         20.3690    45.6910    20.1870 HW2           1 RES     
   11087 OW          46.6450     9.3790     3.2440 OW            1 RES     
   11088 HW1         47.6190     9.3390     3.0230 HW1           1 RES     
   11089 HW2         46.2600    10.2360     2.9010 HW2           1 RES     
   11090 OW          35.9580    23.4290     2.1700 OW            1 RES     
   11091 HW1         35.0910    23.8440     1.8960 HW1           1 RES     
   11092 HW2         36.4730    24.0730     2.7370 HW2           1 RES     
   11093 OW          47.8980    24.1420    14.9950 OW            1 RES     
   11094 HW1         47.2830    24.9120    14.8290 HW1           1 RES     
   11095 HW2         47.3780    23.2880    14.9700 HW2           1 RES     
   11096 OW          50.3740    16.5590     8.7440 OW            1 RES     
   11097 HW1         49.5740    16.4370     8.1590 HW1           1 RES     
   11098 HW2         50.6490    17.5210     8.7370 HW2           1 RES     
   11099 OW          52.4590    17.7570     3.4730 OW            1 RES     
   11100 HW1         52.8990    18.0030     2.6100 HW1           1 RES     
   11101 HW2         52.7710    16.8510     3.7610 HW2           1 RES     
   11102 OW          19.4250    44.4930     7.2670 OW            1 RES     
   11103 HW1         18.6190    44.8020     6.7630 HW1           1 RES     
   11104 HW2         19.3230    43.5250     7.4970 HW2           1 RES     
   11105 OW          51.5130    40.3530    11.4440 OW            1 RES     
   11106 HW1         52.2140    41.0420    11.2660 HW1           1 RES     
   11107 HW2         51.2640    40.3720    12.4130 HW2           1 RES     
   11108 OW          41.9010    32.1200    22.3150 OW            1 RES     
   11109 HW1         42.1330    31.5050    23.0680 HW1           1 RES     
   11110 HW2         41.9230    31.6140    21.4530 HW2           1 RES     
   11111 OW          55.6050    19.0770    17.1350 OW            1 RES     
   11112 HW1         55.9940    19.9790    16.9550 HW1           1 RES     
   11113 HW2         55.8750    18.7730    18.0490 HW2           1 RES     
   11114 OW          53.2780    20.4630    10.0540 OW            1 RES     
   11115 HW1         52.5960    19.7830     9.7840 HW1           1 RES     
   11116 HW2         53.2180    21.2550     9.4470 HW2           1 RES     
   11117 OW          31.9760     1.4120    18.1160 OW            1 RES     
   11118 HW1         31.2140     0.7670    18.1520 HW1           1 RES     
   11119 HW2         31.6250     2.3470    18.1760 HW2           1 RES     
   11120 OW          17.8940    20.9320     5.3390 OW            1 RES     
   11121 HW1         17.2890    20.5520     4.6410 HW1           1 RES     
   11122 HW2         17.8480    20.3680     6.1640 HW2           1 RES     
   11123 OW          43.1440     3.4090     6.9700 OW            1 RES     
   11124 HW1         42.4700     4.0720     6.6470 HW1           1 RES     
   11125 HW2         43.8310     3.2570     6.2600 HW2           1 RES     
   11126 OW          52.9550    43.2430    15.6430 OW            1 RES     
   11127 HW1         53.4560    42.4940    15.2100 HW1           1 RES     
   11128 HW2         53.5170    44.0710    15.6320 HW2           1 RES     
   11129 OW          40.8030     3.1780    17.8040 OW            1 RES     
   11130 HW1         40.0940     3.8790    17.7330 HW1           1 RES     
   11131 HW2         40.6860     2.5090    17.0700 HW2           1 RES     
   11132 OW          51.8530    34.4750     1.8790 OW            1 RES     
   11133 HW1         52.1520    34.4830     0.9260 HW1           1 RES     
   11134 HW2         50.9970    33.9640     1.9570 HW2           1 RES     
   11135 OW          25.3790    37.1950     7.9590 OW            1 RES     
   11136 HW1         24.7630    37.1790     7.1720 HW1           1 RES     
   11137 HW2         25.2900    36.3400     8.4710 HW2           1 RES     
   11138 OW          52.7300     5.3610    21.1360 OW            1 RES     
   11139 HW1         53.1550     4.9330    21.9320 HW1           1 RES     
   11140 HW2         51.7340     5.2980    21.2140 HW2           1 RES     
   11141 OW          54.7150    26.6580    20.5440 OW            1 RES     
   11142 HW1         54.3190    25.9150    21.0830 HW1           1 RES     
   11143 HW2         55.0410    27.3780    21.1560 HW2           1 RES     
   11144 OW          16.5100     3.1680    21.6620 OW            1 RES     
   11145 HW1         16.8030     3.5550    22.5350 HW1           1 RES     
   11146 HW2         16.5710     2.1710    21.7010 HW2           1 RES     
   11147 OW          43.3680    13.8260     0.6800 OW            1 RES     
   11148 HW1         42.4050    14.0800     0.5960 HW1           1 RES     
   11149 HW2         43.6880    14.0300     1.6050 HW2           1 RES     
   11150 OW          35.1820    16.9860    24.2680 OW            1 RES     
   11151 HW1         35.0960    17.9130    23.9050 HW1           1 RES     
   11152 HW2         35.6490    16.4070    23.6000 HW2           1 RES     
   11153 OW           4.2950     3.9050    18.3640 OW            1 RES     
   11154 HW1          3.5030     3.3040    18.2630 HW1           1 RES     
   11155 HW2          4.4060     4.1530    19.3260 HW2           1 RES     
   11156 OW          11.5170     1.5920    18.7470 OW            1 RES     
   11157 HW1         10.5180     1.5590    18.7340 HW1           1 RES     
   11158 HW2         11.8180     2.5450    18.7940 HW2           1 RES     
   11159 OW          41.1340     4.8340    20.1380 OW            1 RES     
   11160 HW1         40.9310     5.8110    20.1830 HW1           1 RES     
   11161 HW2         42.1210     4.6940    20.2180 HW2           1 RES     
   11162 OW           0.6250    39.9500    17.6180 OW            1 RES     
   11163 HW1          0.6250    40.7050    16.9640 HW1           1 RES     
   11164 HW2          0.4030    40.2970    18.5290 HW2           1 RES     
   11165 OW          18.6130     9.5080    20.3230 OW            1 RES     
   11166 HW1         19.2080     8.7390    20.0920 HW1           1 RES     
   11167 HW2         17.6950     9.3390    19.9640 HW2           1 RES     
   11168 OW          50.0420     0.4350     4.2920 OW            1 RES     
   11169 HW1         50.6750     0.9220     4.8930 HW1           1 RES     
   11170 HW2         49.3700     1.0780     3.9240 HW2           1 RES     
   11171 OW          46.2380    37.3350     4.0610 OW            1 RES     
   11172 HW1         46.7130    36.4980     4.3310 HW1           1 RES     
   11173 HW2         45.3260    37.3480     4.4700 HW2           1 RES     
   11174 OW           9.5490     3.2520     4.4420 OW            1 RES     
   11175 HW1          9.1660     4.1400     4.1910 HW1           1 RES     
   11176 HW2          9.4570     3.1150     5.4280 HW2           1 RES     
   11177 OW           5.9080    19.1760    23.0530 OW            1 RES     
   11178 HW1          6.6370    18.5900    22.7010 HW1           1 RES     
   11179 HW2          6.2420    20.1160    23.1270 HW2           1 RES     
   11180 OW          24.2140    32.3710     0.0070 OW            1 RES     
   11181 HW1         25.2090    32.3490     0.1030 HW1           1 RES     
   11182 HW2         23.8210    31.5440     0.4100 HW2           1 RES     
   11183 OW          51.6020     2.4760    12.9770 OW            1 RES     
   11184 HW1         50.9510     1.8060    13.3310 HW1           1 RES     
   11185 HW2         51.9360     2.1780    12.0830 HW2           1 RES     
   11186 OW          21.2670    30.8620    18.4970 OW            1 RES     
   11187 HW1         21.1330    30.8090    19.4860 HW1           1 RES     
   11188 HW2         20.4020    30.6740    18.0320 HW2           1 RES     
   11189 OW          20.1030    32.3850     8.0760 OW            1 RES     
   11190 HW1         21.0430    32.0840     7.9170 HW1           1 RES     
   11191 HW2         19.4710    31.7680     7.6070 HW2           1 RES     
   11192 OW           2.1340    23.0580     7.8840 OW            1 RES     
   11193 HW1          1.1380    23.1040     7.9510 HW1           1 RES     
   11194 HW2          2.5300    23.9270     8.1800 HW2           1 RES     
   11195 OW          10.7780    30.3260     6.5510 OW            1 RES     
   11196 HW1         10.7210    31.3230     6.5800 HW1           1 RES     
   11197 HW2         11.7390    30.0480     6.5230 HW2           1 RES     
   11198 OW          12.5100    35.0480     4.6960 OW            1 RES     
   11199 HW1         13.1760    35.1060     5.4390 HW1           1 RES     
   11200 HW2         11.6800    35.5440     4.9520 HW2           1 RES     
   11201 OW          17.1450    11.9880     2.8030 OW            1 RES     
   11202 HW1         16.8380    12.3220     3.6940 HW1           1 RES     
   11203 HW2         18.0480    11.5690     2.8970 HW2           1 RES     
   11204 OW           0.0080    44.3750     3.5790 OW            1 RES     
   11205 HW1          0.8250    43.8070     3.4850 HW1           1 RES     
   11206 HW2          0.0860    45.1730     2.9810 HW2           1 RES     
   11207 OW          61.0470    17.6470    19.4520 OW            1 RES     
   11208 HW1         60.7610    18.0660    20.3130 HW1           1 RES     
   11209 HW2         61.3480    18.3590    18.8180 HW2           1 RES     
   11210 OW          24.5200     8.1040     8.6610 OW            1 RES     
   11211 HW1         25.1440     8.8510     8.8900 HW1           1 RES     
   11212 HW2         23.7490     8.4620     8.1340 HW2           1 RES     
   11213 OW          60.8460    20.9340    18.0480 OW            1 RES     
   11214 HW1         60.6170    21.8300    18.4280 HW1           1 RES     
   11215 HW2         61.5170    21.0440    17.3140 HW2           1 RES     
   11216 OW          12.9820     3.6740    24.6500 OW            1 RES     
   11217 HW1         12.4330     2.9740    25.1060 HW1           1 RES     
   11218 HW2         13.9020     3.6850    25.0440 HW2           1 RES     
   11219 OW          25.1610    41.1070     0.5200 OW            1 RES     
   11220 HW1         25.2750    41.9680     0.0260 HW1           1 RES     
   11221 HW2         26.0560    40.7660     0.8090 HW2           1 RES     
   11222 OW           4.7740    16.7640     0.9090 OW            1 RES     
   11223 HW1          3.8880    16.6040     0.4760 HW1           1 RES     
   11224 HW2          5.3030    15.9150     0.9130 HW2           1 RES     
   11225 OW          62.2470    31.9680     9.7670 OW            1 RES     
   11226 HW1         61.2640    32.0620     9.9220 HW1           1 RES     
   11227 HW2         62.6310    32.8550     9.5110 HW2           1 RES     
   11228 OW          58.1490    25.5420    21.5030 OW            1 RES     
   11229 HW1         57.6130    26.3300    21.8030 HW1           1 RES     
   11230 HW2         57.5360    24.8390    21.1420 HW2           1 RES     
   11231 OW          34.5020    24.5020     7.8550 OW            1 RES     
   11232 HW1         34.5240    25.2670     8.4970 HW1           1 RES     
   11233 HW2         33.5520    24.2560     7.6600 HW2           1 RES     
   11234 OW          21.9080    27.6450    22.8820 OW            1 RES     
   11235 HW1         21.7780    28.2830    22.1240 HW1           1 RES     
   11236 HW2         21.8130    26.7070    22.5500 HW2           1 RES     
   11237 OW          60.0710     8.6420    25.0690 OW            1 RES     
   11238 HW1         60.2210     7.6740    24.8670 HW1           1 RES     
   11239 HW2         60.9470     9.1250    25.0550 HW2           1 RES     
   11240 OW           5.7950    39.2960    13.6480 OW            1 RES     
   11241 HW1          6.6230    39.4180    13.1020 HW1           1 RES     
   11242 HW2          5.2540    38.5450    13.2690 HW2           1 RES     
   11243 OW           0.7930     0.3320     1.8990 OW            1 RES     
   11244 HW1          1.0650     1.2830     2.0430 HW1           1 RES     
   11245 HW2          0.2570     0.0160     2.6830 HW2           1 RES     
   11246 OW          30.8600    39.6920     8.4640 OW            1 RES     
   11247 HW1         30.2230    38.9240     8.5300 HW1           1 RES     
   11248 HW2         31.4680    39.6910     9.2590 HW2           1 RES     
   11249 OW          55.1710    11.3340    24.2400 OW            1 RES     
   11250 HW1         55.1150    10.3360    24.2750 HW1           1 RES     
   11251 HW2         54.5360    11.6800    23.5490 HW2           1 RES     
   11252 OW          38.5900    28.2790     0.0060 OW            1 RES     
   11253 HW1         37.9280    28.7890     0.5560 HW1           1 RES     
   11254 HW2         38.6600    27.3430     0.3520 HW2           1 RES     
   11255 OW           7.2540     9.0720     9.3340 OW            1 RES     
   11256 HW1          6.5010     9.3920     9.9080 HW1           1 RES     
   11257 HW2          8.0870     9.0020     9.8840 HW2           1 RES     
   11258 OW           4.9720    39.6490     7.5890 OW            1 RES     
   11259 HW1          4.0350    39.7370     7.9240 HW1           1 RES     
   11260 HW2          5.6030    39.6190     8.3650 HW2           1 RES     
   11261 OW          12.4340    36.8730     6.9960 OW            1 RES     
   11262 HW1         11.5930    36.3810     7.2180 HW1           1 RES     
   11263 HW2         12.2540    37.8570     6.9960 HW2           1 RES     
   11264 OW          37.9570    20.1830    21.7810 OW            1 RES     
   11265 HW1         37.3370    19.4000    21.7590 HW1           1 RES     
   11266 HW2         38.9020    19.8600    21.8180 HW2           1 RES     
   11267 OW          14.1450    20.0410    17.0210 OW            1 RES     
   11268 HW1         13.2570    20.4630    16.8390 HW1           1 RES     
   11269 HW2         14.1670    19.1250    16.6220 HW2           1 RES     
   11270 OW          50.1530     4.0850     5.1280 OW            1 RES     
   11271 HW1         50.4900     4.2190     6.0590 HW1           1 RES     
   11272 HW2         50.0060     3.1100     4.9620 HW2           1 RES     
   11273 OW          43.6950    11.4760    23.6120 OW            1 RES     
   11274 HW1         43.5490    11.3920    22.6270 HW1           1 RES     
   11275 HW2         44.0470    10.6120    23.9720 HW2           1 RES     
   11276 OW          38.9360     6.4490     9.4470 OW            1 RES     
   11277 HW1         38.8510     6.5540     8.4560 HW1           1 RES     
   11278 HW2         38.0750     6.7090     9.8850 HW2           1 RES     
   11279 OW          30.7910     9.4720     7.2540 OW            1 RES     
   11280 HW1         29.7930     9.4720     7.2000 HW1           1 RES     
   11281 HW2         31.1220     8.5310     7.3230 HW2           1 RES     
   11282 OW          21.6090    26.9890    13.1740 OW            1 RES     
   11283 HW1         20.6150    27.0030    13.2750 HW1           1 RES     
   11284 HW2         21.9170    26.0480    13.0290 HW2           1 RES     
   11285 OW          52.9410    35.2470     3.9200 OW            1 RES     
   11286 HW1         53.2560    34.3590     3.5860 HW1           1 RES     
   11287 HW2         53.3070    35.9730     3.3380 HW2           1 RES     
   11288 OW          20.3330    22.7010     6.1960 OW            1 RES     
   11289 HW1         19.8710    23.2110     5.4720 HW1           1 RES     
   11290 HW2         21.3220    22.7370     6.0520 HW2           1 RES     
   11291 OW          38.9910    38.4270    18.5970 OW            1 RES     
   11292 HW1         39.5020    38.5580    17.7480 HW1           1 RES     
   11293 HW2         39.4520    38.9090    19.3420 HW2           1 RES     
   11294 OW          21.3140    25.4580    15.7910 OW            1 RES     
   11295 HW1         20.3500    25.6360    15.5940 HW1           1 RES     
   11296 HW2         21.7800    26.3220    15.9830 HW2           1 RES     
   11297 OW          28.3940    38.5160     2.5620 OW            1 RES     
   11298 HW1         29.3680    38.7370     2.5260 HW1           1 RES     
   11299 HW2         27.8620    39.3600     2.6350 HW2           1 RES     
   11300 OW          57.2910    13.4810     7.8200 OW            1 RES     
   11301 HW1         57.5440    14.2800     7.2760 HW1           1 RES     
   11302 HW2         57.8750    13.4300     8.6300 HW2           1 RES     
   11303 OW          26.9630    35.0860    12.6600 OW            1 RES     
   11304 HW1         27.5860    34.3340    12.4450 HW1           1 RES     
   11305 HW2         26.0400    34.7260    12.7980 HW2           1 RES     
   11306 OW           5.7820    22.3870    13.3470 OW            1 RES     
   11307 HW1          6.1190    21.8610    12.5670 HW1           1 RES     
   11308 HW2          5.9860    23.3570    13.2090 HW2           1 RES     
   11309 OW           4.0440    20.0050    10.6550 OW            1 RES     
   11310 HW1          3.0820    20.1280    10.8990 HW1           1 RES     
   11311 HW2          4.2750    19.0330    10.6890 HW2           1 RES     
   11312 OW          59.3200    43.4960    22.1800 OW            1 RES     
   11313 HW1         58.9640    42.5680    22.2870 HW1           1 RES     
   11314 HW2         59.5110    43.8850    23.0820 HW2           1 RES     
   11315 OW          39.4840    44.2020    18.5560 OW            1 RES     
   11316 HW1         40.0140    45.0490    18.5780 HW1           1 RES     
   11317 HW2         38.5100    44.4140    18.6390 HW2           1 RES     
   11318 OW          23.4920     4.4930     1.7790 OW            1 RES     
   11319 HW1         23.6360     3.5120     1.6480 HW1           1 RES     
   11320 HW2         22.5370     4.6600     2.0240 HW2           1 RES     
   11321 OW          45.2860    43.9270    16.0950 OW            1 RES     
   11322 HW1         46.0290    43.2970    15.8710 HW1           1 RES     
   11323 HW2         44.4900    43.7200    15.5280 HW2           1 RES     
   11324 OW          21.0130    37.4880     6.2790 OW            1 RES     
   11325 HW1         21.4700    36.8700     5.6390 HW1           1 RES     
   11326 HW2         21.3100    38.4270     6.1050 HW2           1 RES     
   11327 OW          11.7750    25.5020     8.1200 OW            1 RES     
   11328 HW1         12.4130    26.1470     7.7000 HW1           1 RES     
   11329 HW2         10.8430    25.7150     7.8270 HW2           1 RES     
   11330 OW          32.0450    35.6130    13.5770 OW            1 RES     
   11331 HW1         32.6180    36.2600    14.0790 HW1           1 RES     
   11332 HW2         32.3060    34.6780    13.8190 HW2           1 RES     
   11333 OW          32.2770    32.4260     2.8530 OW            1 RES     
   11334 HW1         32.4870    31.5390     2.4420 HW1           1 RES     
   11335 HW2         32.4120    32.3760     3.8430 HW2           1 RES     
   11336 OW          20.8490    34.2120     6.9350 OW            1 RES     
   11337 HW1         21.2100    35.1390     7.0360 HW1           1 RES     
   11338 HW2         19.8580    34.2530     6.8030 HW2           1 RES     
   11339 OW          60.3420    17.9530     8.5430 OW            1 RES     
   11340 HW1         61.3190    17.9180     8.3360 HW1           1 RES     
   11341 HW2         60.1750    17.5340     9.4360 HW2           1 RES     
   11342 OW          31.7880    16.6210    17.6960 OW            1 RES     
   11343 HW1         32.4030    16.3910    18.4490 HW1           1 RES     
   11344 HW2         31.1140    15.8910    17.5800 HW2           1 RES     
   11345 OW           3.3470    33.1450    13.9840 OW            1 RES     
   11346 HW1          3.8930    32.4640    13.4980 HW1           1 RES     
   11347 HW2          2.4310    32.7790    14.1540 HW2           1 RES     
   11348 OW          11.0120    22.1640    18.3360 OW            1 RES     
   11349 HW1         11.0090    21.6910    19.2160 HW1           1 RES     
   11350 HW2         10.3970    22.9510    18.3780 HW2           1 RES     
   11351 OW          34.7760    28.0620     5.8250 OW            1 RES     
   11352 HW1         33.8040    27.8300     5.8600 HW1           1 RES     
   11353 HW2         35.2980    27.2680     5.5150 HW2           1 RES     
   11354 OW          36.4370     6.5590    23.8780 OW            1 RES     
   11355 HW1         35.6490     6.1840    23.3910 HW1           1 RES     
   11356 HW2         36.7480     5.9020    24.5660 HW2           1 RES     
   11357 OW           7.9160    44.8110    11.9560 OW            1 RES     
   11358 HW1          8.8120    45.1110    11.6300 HW1           1 RES     
   11359 HW2          7.3330    45.6090    12.1100 HW2           1 RES     
   11360 OW          47.7310    39.4960    18.3920 OW            1 RES     
   11361 HW1         47.0450    38.8300    18.1010 HW1           1 RES     
   11362 HW2         48.5820    39.0210    18.6190 HW2           1 RES     
   11363 OW          34.8010    20.6060     2.6520 OW            1 RES     
   11364 HW1         34.5050    20.9620     1.7660 HW1           1 RES     
   11365 HW2         34.5210    21.2360     3.3760 HW2           1 RES     
   11366 OW           2.2510     0.0090    11.4270 OW            1 RES     
   11367 HW1          1.6550     0.3460    12.1550 HW1           1 RES     
   11368 HW2          1.7920     0.1140    10.5450 HW2           1 RES     
   11369 OW          51.8510    34.0250    13.0860 OW            1 RES     
   11370 HW1         51.2070    33.2730    13.2200 HW1           1 RES     
   11371 HW2         51.3780    34.8970    13.2170 HW2           1 RES     
   11372 OW          19.3070    40.6630    19.7250 OW            1 RES     
   11373 HW1         18.6410    40.0800    20.1890 HW1           1 RES     
   11374 HW2         18.8270    41.3870    19.2270 HW2           1 RES     
   11375 OW          58.9980     1.8250     0.9220 OW            1 RES     
   11376 HW1         59.0760     1.3800     0.0310 HW1           1 RES     
   11377 HW2         59.8640     2.2710     1.1500 HW2           1 RES     
   11378 OW          54.3030    27.4820     4.9910 OW            1 RES     
   11379 HW1         53.7280    28.2860     5.1370 HW1           1 RES     
   11380 HW2         53.7260    26.6700     4.9010 HW2           1 RES     
   11381 OW          23.5330    26.4920    18.7470 OW            1 RES     
   11382 HW1         23.5980    25.5000    18.8470 HW1           1 RES     
   11383 HW2         22.6760    26.7260    18.2880 HW2           1 RES     
   11384 OW          16.0240    40.3610     5.7240 OW            1 RES     
   11385 HW1         15.9160    40.8620     4.8660 HW1           1 RES     
   11386 HW2         15.2890    40.6140     6.3530 HW2           1 RES     
   11387 OW          11.8620    26.7140    23.4690 OW            1 RES     
   11388 HW1         11.5030    26.2490    22.6600 HW1           1 RES     
   11389 HW2         11.3930    26.3730    24.2850 HW2           1 RES     
   11390 OW           3.9610    12.2140     4.0710 OW            1 RES     
   11391 HW1          3.0140    11.9220     3.9360 HW1           1 RES     
   11392 HW2          4.5750    11.4440     3.8980 HW2           1 RES     
   11393 OW          17.3520    32.8020     3.1030 OW            1 RES     
   11394 HW1         18.3450    32.9010     3.1650 HW1           1 RES     
   11395 HW2         17.1150    31.8310     3.0650 HW2           1 RES     
   11396 OW           4.7880    32.3060    23.4740 OW            1 RES     
   11397 HW1          5.7410    32.4590    23.7350 HW1           1 RES     
   11398 HW2          4.4170    31.5410    24.0020 HW2           1 RES     
   11399 OW          24.8830     9.2120     6.2400 OW            1 RES     
   11400 HW1         25.7870     8.8430     6.0290 HW1           1 RES     
   11401 HW2         24.1790     8.5990     5.8820 HW2           1 RES     
   11402 OW          55.2230    24.3410     3.0960 OW            1 RES     
   11403 HW1         54.6080    25.1290     3.0630 HW1           1 RES     
   11404 HW2         54.7190    23.5380     3.4140 HW2           1 RES     
   11405 OW          22.6650    14.1460    21.5500 OW            1 RES     
   11406 HW1         23.6060    13.8670    21.7400 HW1           1 RES     
   11407 HW2         22.3940    14.8630    22.1930 HW2           1 RES     
   11408 OW          51.1950    32.0540    20.5570 OW            1 RES     
   11409 HW1         52.0640    31.6160    20.7830 HW1           1 RES     
   11410 HW2         50.4590    31.3780    20.5970 HW2           1 RES     
   11411 OW          40.1930    35.8460    19.8470 OW            1 RES     
   11412 HW1         40.9120    36.5390    19.8870 HW1           1 RES     
   11413 HW2         40.5540    35.0140    19.4250 HW2           1 RES     
   11414 OW          48.3670    16.3370    18.6850 OW            1 RES     
   11415 HW1         47.8810    15.6510    19.2250 HW1           1 RES     
   11416 HW2         48.5200    17.1530    19.2420 HW2           1 RES     
   11417 OW          27.7800     5.0180    10.3030 OW            1 RES     
   11418 HW1         28.0360     5.9080    10.6800 HW1           1 RES     
   11419 HW2         28.5310     4.3700    10.4360 HW2           1 RES     
   11420 OW           8.0750    45.0300    23.8050 OW            1 RES     
   11421 HW1          7.2650    44.5220    24.0950 HW1           1 RES     
   11422 HW2          8.7940    44.9330    24.4940 HW2           1 RES     
   11423 OW          32.3170     7.5450    23.6370 OW            1 RES     
   11424 HW1         31.7680     7.4390    22.8090 HW1           1 RES     
   11425 HW2         32.9230     8.3350    23.5370 HW2           1 RES     
   11426 OW          45.3710    43.4250    20.5810 OW            1 RES     
   11427 HW1         46.2720    43.5930    20.9790 HW1           1 RES     
   11428 HW2         44.8630    42.7890    21.1620 HW2           1 RES     
   11429 OW          57.4700    35.0750    18.9230 OW            1 RES     
   11430 HW1         57.4620    34.3440    19.6050 HW1           1 RES     
   11431 HW2         56.6260    35.6070    18.9950 HW2           1 RES     
   11432 OW          33.3910    43.4130     0.0160 OW            1 RES     
   11433 HW1         32.5040    43.8270     0.2170 HW1           1 RES     
   11434 HW2         33.8860    43.2510     0.8700 HW2           1 RES     
   11435 OW          35.7480    46.8720    18.5830 OW            1 RES     
   11436 HW1         36.3710    46.0920    18.5320 HW1           1 RES     
   11437 HW2         36.2500    47.6800    18.8920 HW2           1 RES     
   11438 OW           5.0330    11.7020     1.0060 OW            1 RES     
   11439 HW1          4.0440    11.5630     1.0240 HW1           1 RES     
   11440 HW2          5.2380    12.6700     1.1520 HW2           1 RES     
   11441 OW          42.2600    12.7930     9.4250 OW            1 RES     
   11442 HW1         43.1230    13.2890     9.5140 HW1           1 RES     
   11443 HW2         41.6680    13.2670     8.7730 HW2           1 RES     
   11444 OW          15.3050    29.5970    12.1130 OW            1 RES     
   11445 HW1         14.9350    30.1190    12.8810 HW1           1 RES     
   11446 HW2         16.3020    29.6750    12.1050 HW2           1 RES     
   11447 OW          47.1190    44.4390    18.0820 OW            1 RES     
   11448 HW1         46.9820    43.4710    18.2860 HW1           1 RES     
   11449 HW2         47.9140    44.5460    17.4840 HW2           1 RES     
   11450 OW          43.1390    35.7840    18.1580 OW            1 RES     
   11451 HW1         42.1440    35.8720    18.1560 HW1           1 RES     
   11452 HW2         43.5540    36.6750    17.9740 HW2           1 RES     
   11453 OW          37.3850    11.2660    19.3990 OW            1 RES     
   11454 HW1         36.6150    11.8510    19.1470 HW1           1 RES     
   11455 HW2         38.1610    11.8340    19.6710 HW2           1 RES     
   11456 OW          59.5280    48.5720    13.4280 OW            1 RES     
   11457 HW1         58.8980    47.9220    13.8520 HW1           1 RES     
   11458 HW2         59.2810    48.6980    12.4670 HW2           1 RES     
   11459 OW          22.1140     2.7040     8.2020 OW            1 RES     
   11460 HW1         21.4760     3.3850     8.5610 HW1           1 RES     
   11461 HW2         21.6640     2.1670     7.4890 HW2           1 RES     
   11462 OW          54.3250    26.3970    14.1890 OW            1 RES     
   11463 HW1         53.4300    26.0360    14.4490 HW1           1 RES     
   11464 HW2         54.9060    25.6480    13.8680 HW2           1 RES     
   11465 OW          56.1730     9.8380    21.5910 OW            1 RES     
   11466 HW1         56.0940     9.1600    22.3210 HW1           1 RES     
   11467 HW2         55.3430    10.3960    21.5610 HW2           1 RES     
   11468 OW          30.4780    14.9150    13.4510 OW            1 RES     
   11469 HW1         30.5200    14.4240    14.3210 HW1           1 RES     
   11470 HW2         29.5300    14.9560    13.1360 HW2           1 RES     
   11471 OW          49.8850    22.2560     4.5000 OW            1 RES     
   11472 HW1         50.2450    21.7470     5.2820 HW1           1 RES     
   11473 HW2         49.0690    21.7960     4.1500 HW2           1 RES     
   11474 OW           4.7060     8.5550     7.4090 OW            1 RES     
   11475 HW1          4.6870     9.0180     6.5240 HW1           1 RES     
   11476 HW2          5.3390     9.0290     8.0210 HW2           1 RES     
   11477 OW          59.1610    19.8920     3.5650 OW            1 RES     
   11478 HW1         58.6130    20.7280     3.5920 HW1           1 RES     
   11479 HW2         58.6280    19.1320     3.9360 HW2           1 RES     
   11480 OW          60.0640    40.3980    17.9240 OW            1 RES     
   11481 HW1         59.5540    40.3580    18.7830 HW1           1 RES     
   11482 HW2         60.3670    41.3370    17.7590 HW2           1 RES     
   11483 OW          54.4510    36.6250    23.6150 OW            1 RES     
   11484 HW1         54.1640    36.6760    24.5720 HW1           1 RES     
   11485 HW2         53.8610    35.9830    23.1240 HW2           1 RES     
   11486 OW          28.1490    47.6920     5.2430 OW            1 RES     
   11487 HW1         28.8140    47.9270     4.5350 HW1           1 RES     
   11488 HW2         28.6250    47.3010     6.0310 HW2           1 RES     
   11489 OW          16.5360     9.6590     6.1130 OW            1 RES     
   11490 HW1         17.0610     9.0740     6.7300 HW1           1 RES     
   11491 HW2         15.8620     9.1060     5.6220 HW2           1 RES     
   11492 OW          61.8110     1.6440    20.5470 OW            1 RES     
   11493 HW1         62.6310     2.1620    20.3050 HW1           1 RES     
   11494 HW2         61.1380     2.2580    20.9610 HW2           1 RES     
   11495 OW          43.9770     8.4490    23.5620 OW            1 RES     
   11496 HW1         43.1480     8.6240    23.0320 HW1           1 RES     
   11497 HW2         43.8470     7.6350    24.1280 HW2           1 RES     
   11498 OW          58.7070    28.4060     9.9680 OW            1 RES     
   11499 HW1         59.1030    29.3140    10.1000 HW1           1 RES     
   11500 HW2         59.4400    27.7300     9.8960 HW2           1 RES     
   11501 OW           6.6870    43.6200    10.5550 OW            1 RES     
   11502 HW1          5.9880    42.9620    10.8340 HW1           1 RES     
   11503 HW2          7.2160    43.2420     9.7940 HW2           1 RES     
   11504 OW          57.2370    47.1880     1.9480 OW            1 RES     
   11505 HW1         58.0520    46.7080     2.2700 HW1           1 RES     
   11506 HW2         57.5070    47.9240     1.3260 HW2           1 RES     
   11507 OW          52.8790    31.3430     3.3830 OW            1 RES     
   11508 HW1         51.9050    31.3700     3.6050 HW1           1 RES     
   11509 HW2         53.1650    32.2330     3.0280 HW2           1 RES     
   11510 OW          55.4120    42.6760     6.7800 OW            1 RES     
   11511 HW1         56.2520    43.1910     6.9410 HW1           1 RES     
   11512 HW2         55.2860    42.5410     5.7970 HW2           1 RES     
   11513 OW          53.6020    19.9470    16.7990 OW            1 RES     
   11514 HW1         53.8160    20.6100    16.0820 HW1           1 RES     
   11515 HW2         53.6070    20.4040    17.6880 HW2           1 RES     
   11516 OW          62.5990     6.9800     8.2860 OW            1 RES     
   11517 HW1         61.7640     6.4330     8.3350 HW1           1 RES     
   11518 HW2         62.3610     7.9510     8.2430 HW2           1 RES     
   11519 OW          46.4540    24.6770     7.1910 OW            1 RES     
   11520 HW1         45.6480    25.1890     6.8960 HW1           1 RES     
   11521 HW2         47.1630    25.3140     7.4930 HW2           1 RES     
   11522 OW           8.4790    37.6790    23.2680 OW            1 RES     
   11523 HW1          8.9420    36.7940    23.2960 HW1           1 RES     
   11524 HW2          9.1230    38.3840    22.9710 HW2           1 RES     
   11525 OW          47.6940    31.6830    23.6980 OW            1 RES     
   11526 HW1         47.8450    32.6380    23.4440 HW1           1 RES     
   11527 HW2         48.5390    31.1650    23.5640 HW2           1 RES     
   11528 OW          49.4190    41.6030    14.5040 OW            1 RES     
   11529 HW1         49.1650    40.6370    14.5280 HW1           1 RES     
   11530 HW2         50.4150    41.6880    14.5450 HW2           1 RES     
   11531 OW          55.9690     4.5260    24.4250 OW            1 RES     
   11532 HW1         55.2980     4.2300    25.1040 HW1           1 RES     
   11533 HW2         56.2650     5.4580    24.6320 HW2           1 RES     
   11534 OW          11.7460     7.6510    17.9980 OW            1 RES     
   11535 HW1         11.1860     6.8620    17.7480 HW1           1 RES     
   11536 HW2         11.5750     7.8930    18.9540 HW2           1 RES     
   11537 OW          10.5560    42.5270    19.5270 OW            1 RES     
   11538 HW1         11.0840    41.6890    19.3860 HW1           1 RES     
   11539 HW2         11.1800    43.3030    19.6190 HW2           1 RES     
   11540 OW          36.6550    43.8590    15.7510 OW            1 RES     
   11541 HW1         35.8130    43.3520    15.5720 HW1           1 RES     
   11542 HW2         37.4070    43.2160    15.8990 HW2           1 RES     
   11543 OW          58.5440    10.8250    23.8130 OW            1 RES     
   11544 HW1         57.6580    10.3640    23.7890 HW1           1 RES     
   11545 HW2         58.4390    11.7310    24.2230 HW2           1 RES     
   11546 OW           9.5720    10.3970    15.6330 OW            1 RES     
   11547 HW1          9.2900     9.4380    15.6710 HW1           1 RES     
   11548 HW2         10.5700    10.4520    15.6520 HW2           1 RES     
   11549 OW          35.0070    12.1840     3.0750 OW            1 RES     
   11550 HW1         34.9610    12.0320     2.0880 HW1           1 RES     
   11551 HW2         34.6510    13.0940     3.2900 HW2           1 RES     
   11552 OW          23.8360    23.6220    17.5180 OW            1 RES     
   11553 HW1         22.8470    23.7550    17.4660 HW1           1 RES     
   11554 HW2         24.0320    22.7270    17.9200 HW2           1 RES     
   11555 OW          15.4390    34.5740     7.7360 OW            1 RES     
   11556 HW1         15.2170    33.7100     8.1870 HW1           1 RES     
   11557 HW2         15.2690    35.3330     8.3640 HW2           1 RES     
   11558 OW          55.1870    35.6950    21.2410 OW            1 RES     
   11559 HW1         55.0360    34.7650    20.9080 HW1           1 RES     
   11560 HW2         54.6160    36.3320    20.7220 HW2           1 RES     
   11561 OW          20.3840    46.7450     8.8800 OW            1 RES     
   11562 HW1         19.4110    46.7230     8.6510 HW1           1 RES     
   11563 HW2         20.5870    46.0240     9.5430 HW2           1 RES     
   11564 OW          53.6840    11.5390    10.4660 OW            1 RES     
   11565 HW1         54.3480    11.3670     9.7390 HW1           1 RES     
   11566 HW2         52.7850    11.7130    10.0630 HW2           1 RES     
   11567 OW           1.9580    14.7230     6.8450 OW            1 RES     
   11568 HW1          1.3710    14.5940     6.0460 HW1           1 RES     
   11569 HW2          1.6220    15.4940     7.3860 HW2           1 RES     
   11570 OW          41.3540    16.7570     8.4420 OW            1 RES     
   11571 HW1         41.2900    16.3600     9.3570 HW1           1 RES     
   11572 HW2         42.2960    17.0470     8.2690 HW2           1 RES     
   11573 OW           2.9050     7.1380     5.7530 OW            1 RES     
   11574 HW1          2.0600     6.6520     5.9730 HW1           1 RES     
   11575 HW2          2.6990     8.1000     5.5720 HW2           1 RES     
   11576 OW          27.3600    29.3490    22.9990 OW            1 RES     
   11577 HW1         26.8800    29.3370    23.8750 HW1           1 RES     
   11578 HW2         28.0670    30.0560    23.0140 HW2           1 RES     
   11579 OW          34.3990     0.9260    24.4150 OW            1 RES     
   11580 HW1         35.3650     1.1240    24.2500 HW1           1 RES     
   11581 HW2         34.1580     0.0570    23.9810 HW2           1 RES     
   11582 OW          28.8110     6.9160    13.1970 OW            1 RES     
   11583 HW1         28.9390     7.9070    13.1810 HW1           1 RES     
   11584 HW2         27.8400     6.7030    13.0860 HW2           1 RES     
   11585 OW           3.8280     6.4940    12.0270 OW            1 RES     
   11586 HW1          3.4980     6.7450    12.9360 HW1           1 RES     
   11587 HW2          4.3000     7.2740    11.6160 HW2           1 RES     
   11588 OW          58.7250     1.4110     8.4990 OW            1 RES     
   11589 HW1         58.9270     1.1000     7.5710 HW1           1 RES     
   11590 HW2         58.9930     2.3700     8.5950 HW2           1 RES     
   11591 OW           7.9900    17.9710    13.1190 OW            1 RES     
   11592 HW1          8.9330    18.2700    12.9790 HW1           1 RES     
   11593 HW2          7.8860    17.0290    12.7990 HW2           1 RES     
   11594 OW           3.5560    36.9910     1.3810 OW            1 RES     
   11595 HW1          3.3680    36.2760     2.0530 HW1           1 RES     
   11596 HW2          2.9480    37.7690     1.5420 HW2           1 RES     
   11597 OW          30.4280    38.7730    12.2260 OW            1 RES     
   11598 HW1         30.1930    39.7220    12.4340 HW1           1 RES     
   11599 HW2         30.6270    38.6850    11.2500 HW2           1 RES     
   11600 OW          16.1730     2.0600     8.1490 OW            1 RES     
   11601 HW1         15.9520     1.0880     8.0850 HW1           1 RES     
   11602 HW2         15.4590     2.5310     8.6680 HW2           1 RES     
   11603 OW           1.5150    17.6630     2.1260 OW            1 RES     
   11604 HW1          1.5140    17.4670     1.1460 HW1           1 RES     
   11605 HW2          1.4530    16.8050     2.6380 HW2           1 RES     
   11606 OW          49.9270    30.4490     0.3170 OW            1 RES     
   11607 HW1         49.8210    30.7720     1.2570 HW1           1 RES     
   11608 HW2         49.8130    29.4560     0.2900 HW2           1 RES     
   11609 OW          55.4930    47.7640     6.0140 OW            1 RES     
   11610 HW1         54.5380    48.0580     6.0290 HW1           1 RES     
   11611 HW2         55.5830    46.9500     5.4400 HW2           1 RES     
   11612 OW           0.0000    46.5460     6.0320 OW            1 RES     
   11613 HW1          0.7200    45.8540     6.0710 HW1           1 RES     
   11614 HW2          0.0020    46.9810     5.1320 HW2           1 RES     
   11615 OW          36.5240     5.4890    11.5430 OW            1 RES     
   11616 HW1         36.9060     6.2050    12.1260 HW1           1 RES     
   11617 HW2         35.5570     5.6780    11.3700 HW2           1 RES     
   11618 OW          41.9130    32.5450    18.3720 OW            1 RES     
   11619 HW1         41.3430    31.9820    18.9700 HW1           1 RES     
   11620 HW2         42.7540    32.7960    18.8530 HW2           1 RES     
   11621 OW          24.3640    15.3650    19.5680 OW            1 RES     
   11622 HW1         23.9790    16.0910    18.9990 HW1           1 RES     
   11623 HW2         24.3050    14.4930    19.0810 HW2           1 RES     
   11624 OW           4.4530    36.0180    13.7530 OW            1 RES     
   11625 HW1          3.9090    36.8210    13.5120 HW1           1 RES     
   11626 HW2          3.8470    35.2860    14.0650 HW2           1 RES     
   11627 OW          62.6110    33.8970     6.5240 OW            1 RES     
   11628 HW1         62.3540    32.9760     6.2340 HW1           1 RES     
   11629 HW2         62.0480    34.5680     6.0430 HW2           1 RES     
   11630 OW          34.8110    13.7240    12.3690 OW            1 RES     
   11631 HW1         35.0620    13.7740    11.4030 HW1           1 RES     
   11632 HW2         35.4190    13.0850    12.8400 HW2           1 RES     
   11633 OW          18.4080    41.9430     5.0930 OW            1 RES     
   11634 HW1         18.1600    42.8040     5.5370 HW1           1 RES     
   11635 HW2         17.8560    41.8210     4.2680 HW2           1 RES     
   11636 OW          45.4000    22.5940     1.8600 OW            1 RES     
   11637 HW1         45.3790    23.5350     1.5250 HW1           1 RES     
   11638 HW2         44.8120    22.0230     1.2880 HW2           1 RES     
   11639 OW           5.1710     9.4300    18.0580 OW            1 RES     
   11640 HW1          5.8470     9.3460    17.3270 HW1           1 RES     
   11641 HW2          5.5710     9.1190    18.9200 HW2           1 RES     
   11642 OW          31.6790    19.5980    11.6900 OW            1 RES     
   11643 HW1         30.7230    19.4880    11.4190 HW1           1 RES     
   11644 HW2         32.0370    20.4520    11.3110 HW2           1 RES     
   11645 OW           9.8250    16.6160     4.1660 OW            1 RES     
   11646 HW1         10.7830    16.3320     4.1390 HW1           1 RES     
   11647 HW2          9.2360    15.8150     4.0630 HW2           1 RES     
   11648 OW          38.4570     6.2630    18.3070 OW            1 RES     
   11649 HW1         38.7070     7.2160    18.4740 HW1           1 RES     
   11650 HW2         37.5090     6.2170    17.9900 HW2           1 RES     
   11651 OW          28.8660    46.8350    24.2530 OW            1 RES     
   11652 HW1         29.8010    46.4830    24.2610 HW1           1 RES     
   11653 HW2         28.6870    47.3280    25.1040 HW2           1 RES     
   11654 OW          43.4200     2.6930    23.7070 OW            1 RES     
   11655 HW1         43.6780     3.5120    24.2190 HW1           1 RES     
   11656 HW2         44.2410     2.2600    23.3340 HW2           1 RES     
   11657 OW          18.7520    35.6130     2.4390 OW            1 RES     
   11658 HW1         19.2280    35.8620     3.2820 HW1           1 RES     
   11659 HW2         19.3030    34.9530     1.9270 HW2           1 RES     
   11660 OW          54.8580    30.9500    15.4220 OW            1 RES     
   11661 HW1         53.9020    30.7180    15.5990 HW1           1 RES     
   11662 HW2         55.4530    30.3170    15.9180 HW2           1 RES     
   11663 OW          10.9900    31.8840    10.9710 OW            1 RES     
   11664 HW1         11.3500    31.1760    10.3650 HW1           1 RES     
   11665 HW2         10.0030    31.9720    10.8330 HW2           1 RES     
   11666 OW          12.9550    15.3340     8.4310 OW            1 RES     
   11667 HW1         13.4840    16.1330     8.1460 HW1           1 RES     
   11668 HW2         13.5670    14.5490     8.5380 HW2           1 RES     
   11669 OW          29.2370     2.3490    12.5640 OW            1 RES     
   11670 HW1         29.5480     1.4650    12.9140 HW1           1 RES     
   11671 HW2         28.6030     2.2030    11.8040 HW2           1 RES     
   11672 OW          38.0250    16.9700    15.1680 OW            1 RES     
   11673 HW1         38.9400    16.6650    15.4300 HW1           1 RES     
   11674 HW2         38.0940    17.8130    14.6350 HW2           1 RES     
   11675 OW           1.8530     1.4880    19.6930 OW            1 RES     
   11676 HW1          0.9520     1.3360    20.0990 HW1           1 RES     
   11677 HW2          1.7540     2.0190    18.8510 HW2           1 RES     
   11678 OW          13.5370     4.8370    13.1150 OW            1 RES     
   11679 HW1         13.6420     5.7360    13.5390 HW1           1 RES     
   11680 HW2         14.1110     4.1730    13.5940 HW2           1 RES     
   11681 OW          31.5250     1.3060    25.0470 OW            1 RES     
   11682 HW1         31.6110     0.3210    24.8990 HW1           1 RES     
   11683 HW2         32.4040     1.7490    24.8690 HW2           1 RES     
   11684 OW          59.9460    41.2580    12.9420 OW            1 RES     
   11685 HW1         59.2820    41.9490    13.2290 HW1           1 RES     
   11686 HW2         59.5130    40.3560    12.9470 HW2           1 RES     
   11687 OW          30.9080    25.8260     1.4540 OW            1 RES     
   11688 HW1         31.4090    26.4740     0.8820 HW1           1 RES     
   11689 HW2         30.1110    26.2790     1.8520 HW2           1 RES     
   11690 OW          59.8810    22.7240     6.4620 OW            1 RES     
   11691 HW1         60.5090    22.3970     7.1670 HW1           1 RES     
   11692 HW2         59.2680    23.4110     6.8530 HW2           1 RES     
   11693 OW          50.0560    16.1460    25.1070 OW            1 RES     
   11694 HW1         50.9310    15.6640    25.0780 HW1           1 RES     
   11695 HW2         49.3080    15.4840    25.0610 HW2           1 RES     
   11696 OW          53.4730    23.7580    14.4610 OW            1 RES     
   11697 HW1         52.5660    23.3460    14.5360 HW1           1 RES     
   11698 HW2         54.1640    23.0360    14.4070 HW2           1 RES     
   11699 OW          39.3610    45.3390     3.1740 OW            1 RES     
   11700 HW1         39.9790    46.0810     2.9180 HW1           1 RES     
   11701 HW2         39.3540    45.2380     4.1690 HW2           1 RES     
   11702 OW           0.7790    36.7870    14.1230 OW            1 RES     
   11703 HW1          0.0050    36.6170    14.7310 HW1           1 RES     
   11704 HW2          1.4090    37.4330    14.5550 HW2           1 RES     
   11705 OW          55.6180    31.4850    23.0480 OW            1 RES     
   11706 HW1         55.5220    30.5360    22.7520 HW1           1 RES     
   11707 HW2         55.7500    31.5140    24.0390 HW2           1 RES     
   11708 OW          60.5080     4.8850    16.4320 OW            1 RES     
   11709 HW1         59.5090     4.8760    16.4680 HW1           1 RES     
   11710 HW2         60.8290     5.8220    16.2970 HW2           1 RES     
   11711 OW          41.2780     0.9180    24.2820 OW            1 RES     
   11712 HW1         40.8650     1.8280    24.2840 HW1           1 RES     
   11713 HW2         40.7620     0.3180    23.6700 HW2           1 RES     
   11714 OW          47.3720     4.7190    11.8810 OW            1 RES     
   11715 HW1         47.4270     3.8650    11.3640 HW1           1 RES     
   11716 HW2         47.9830     5.3970    11.4730 HW2           1 RES     
   11717 OW          13.9300    16.5100     6.0200 OW            1 RES     
   11718 HW1         14.7850    16.0240     5.8440 HW1           1 RES     
   11719 HW2         13.1610    15.8770     5.9300 HW2           1 RES     
   11720 OW           3.9830    15.8260     7.2890 OW            1 RES     
   11721 HW1          4.4060    16.3510     8.0260 HW1           1 RES     
   11722 HW2          3.5780    16.4530     6.6230 HW2           1 RES     
   11723 OW          42.6620     7.4620     8.1760 OW            1 RES     
   11724 HW1         42.9710     7.0670     9.0400 HW1           1 RES     
   11725 HW2         43.2210     8.2610     7.9550 HW2           1 RES     
   11726 OW          19.5440     0.0010    15.5640 OW            1 RES     
   11727 HW1         20.5060     0.1850    15.3650 HW1           1 RES     
   11728 HW2         18.9770     0.3410    14.8130 HW2           1 RES     
   11729 OW          60.3720    30.9570    14.6670 OW            1 RES     
   11730 HW1         59.9120    30.1720    15.0800 HW1           1 RES     
   11731 HW2         61.3170    30.7140    14.4490 HW2           1 RES     
   11732 OW           2.1050    27.1440     3.5500 OW            1 RES     
   11733 HW1          2.3540    26.2060     3.7860 HW1           1 RES     
   11734 HW2          1.8840    27.6510     4.3840 HW2           1 RES     
   11735 OW          38.2980     9.5440     2.1370 OW            1 RES     
   11736 HW1         38.5260    10.0320     1.2950 HW1           1 RES     
   11737 HW2         38.8780     8.7330     2.2210 HW2           1 RES     
   11738 OW          59.3910     9.2070    22.0460 OW            1 RES     
   11739 HW1         59.3080     8.2320    22.2480 HW1           1 RES     
   11740 HW2         60.3550     9.4410    21.9160 HW2           1 RES     
   11741 OW           9.3840    33.3330     5.4160 OW            1 RES     
   11742 HW1          9.8850    34.1440     5.1150 HW1           1 RES     
   11743 HW2          9.0550    33.4720     6.3500 HW2           1 RES     
   11744 OW          26.2960     2.5800    10.4220 OW            1 RES     
   11745 HW1         26.6430     2.9400     9.5570 HW1           1 RES     
   11746 HW2         25.8240     3.3060    10.9210 HW2           1 RES     
   11747 OW          25.6550    32.6270     5.1200 OW            1 RES     
   11748 HW1         26.1380    32.3970     4.2760 HW1           1 RES     
   11749 HW2         25.3960    33.5930     5.1040 HW2           1 RES     
   11750 OW          38.9430    43.5830    20.7180 OW            1 RES     
   11751 HW1         39.1450    42.6050    20.7310 HW1           1 RES     
   11752 HW2         39.7930    44.1010    20.8240 HW2           1 RES     
   11753 OW          38.2390    39.0190     1.4220 OW            1 RES     
   11754 HW1         38.6740    39.1940     2.3050 HW1           1 RES     
   11755 HW2         38.7850    38.3590     0.9060 HW2           1 RES     
   11756 OW          27.9410    11.7510     7.5020 OW            1 RES     
   11757 HW1         27.5630    12.5460     7.9750 HW1           1 RES     
   11758 HW2         28.8720    11.5800     7.8270 HW2           1 RES     
   11759 OW          28.2250    40.4330    23.2630 OW            1 RES     
   11760 HW1         28.3030    39.6720    23.9060 HW1           1 RES     
   11761 HW2         28.4100    40.1070    22.3360 HW2           1 RES     
   11762 OW          11.6490    43.7600     7.6630 OW            1 RES     
   11763 HW1         11.9690    43.2250     6.8810 HW1           1 RES     
   11764 HW2         10.9150    43.2650     8.1280 HW2           1 RES     
   11765 OW          34.5140    27.8140    12.6800 OW            1 RES     
   11766 HW1         34.9120    27.3280    13.4570 HW1           1 RES     
   11767 HW2         33.7740    27.2690    12.2880 HW2           1 RES     
   11768 OW          28.4040    43.4890     8.3950 OW            1 RES     
   11769 HW1         28.4020    42.8650     9.1760 HW1           1 RES     
   11770 HW2         27.5780    43.3450     7.8500 HW2           1 RES     
   11771 OW          14.2550     8.3930    23.8520 OW            1 RES     
   11772 HW1         14.7440     8.3280    24.7210 HW1           1 RES     
   11773 HW2         14.1820     9.3530    23.5800 HW2           1 RES     
   11774 OW          10.8830    17.4620     8.6720 OW            1 RES     
   11775 HW1         11.5590    18.1650     8.4510 HW1           1 RES     
   11776 HW2         10.4740    17.1140     7.8280 HW2           1 RES     
   11777 OW          15.7680     1.4280     1.8320 OW            1 RES     
   11778 HW1         16.4720     0.7380     1.6680 HW1           1 RES     
   11779 HW2         15.6600     1.9960     1.0160 HW2           1 RES     
   11780 OW          21.0720    33.2840    20.1690 OW            1 RES     
   11781 HW1         20.9800    34.1770    19.7320 HW1           1 RES     
   11782 HW2         21.9400    33.2420    20.6660 HW2           1 RES     
   11783 OW          62.3080    24.0810     8.4680 OW            1 RES     
   11784 HW1         61.3890    23.9220     8.8260 HW1           1 RES     
   11785 HW2         62.6310    23.2580     8.0000 HW2           1 RES     
   11786 OW           9.4530     6.5280     5.5560 OW            1 RES     
   11787 HW1          8.6750     5.9040     5.6120 HW1           1 RES     
   11788 HW2         10.3030     6.0010     5.5300 HW2           1 RES     
   11789 OW          51.3110    24.8330    12.2750 OW            1 RES     
   11790 HW1         51.3910    23.8390    12.3390 HW1           1 RES     
   11791 HW2         52.2160    25.2320    12.1260 HW2           1 RES     
   11792 OW          17.9630    28.7450     0.7230 OW            1 RES     
   11793 HW1         17.2980    29.4250     1.0290 HW1           1 RES     
   11794 HW2         17.4850    27.9100     0.4480 HW2           1 RES     
   11795 OW          14.5020    36.6170     2.1960 OW            1 RES     
   11796 HW1         14.5160    37.6100     2.3030 HW1           1 RES     
   11797 HW2         15.2670    36.3320     1.6190 HW2           1 RES     
   11798 OW          50.9320     1.8660    22.6350 OW            1 RES     
   11799 HW1         51.4170     2.7330    22.7490 HW1           1 RES     
   11800 HW2         49.9690     2.0460    22.4350 HW2           1 RES     
   11801 OW          44.9760    15.6230    16.8290 OW            1 RES     
   11802 HW1         45.9580    15.5820    16.6450 HW1           1 RES     
   11803 HW2         44.5970    14.6970    16.8240 HW2           1 RES     
   11804 OW          51.5680    39.3060    16.4090 OW            1 RES     
   11805 HW1         51.2990    38.4440    15.9810 HW1           1 RES     
   11806 HW2         50.8080    39.6580    16.9570 HW2           1 RES     
   11807 OW          33.0410    36.7490     4.1980 OW            1 RES     
   11808 HW1         33.4820    37.6430     4.1290 HW1           1 RES     
   11809 HW2         33.7360    36.0310     4.1820 HW2           1 RES     
   11810 OW          14.2900     1.9670    13.1780 OW            1 RES     
   11811 HW1         14.0090     2.3800    12.3130 HW1           1 RES     
   11812 HW2         14.9750     1.2590    13.0030 HW2           1 RES     
   11813 OW          51.7110    38.6210     7.8740 OW            1 RES     
   11814 HW1         52.4210    39.3050     8.0370 HW1           1 RES     
   11815 HW2         51.8480    38.2050     6.9750 HW2           1 RES     
   11816 OW           0.9910    17.8320    20.0410 OW            1 RES     
   11817 HW1          0.0030    17.7570    20.1720 HW1           1 RES     
   11818 HW2          1.4450    17.0490    20.4660 HW2           1 RES     
   11819 OW          58.4680    42.2900    24.4120 OW            1 RES     
   11820 HW1         57.7990    41.5950    24.1520 HW1           1 RES     
   11821 HW2         58.0690    42.8970    25.1000 HW2           1 RES     
   11822 OW          22.1860    27.4390     9.6200 OW            1 RES     
   11823 HW1         21.7920    28.2470    10.0570 HW1           1 RES     
   11824 HW2         22.4090    26.7580    10.3170 HW2           1 RES     
   11825 OW          58.8110    25.5560    10.3070 OW            1 RES     
   11826 HW1         57.8500    25.6280    10.0410 HW1           1 RES     
   11827 HW2         59.0940    24.5970    10.2790 HW2           1 RES     
   11828 OW          52.5890    29.9630    24.3950 OW            1 RES     
   11829 HW1         51.9050    30.3520    25.0120 HW1           1 RES     
   11830 HW2         52.3330    30.1570    23.4480 HW2           1 RES     
   11831 OW          17.9230    24.2340     5.4760 OW            1 RES     
   11832 HW1         17.7430    24.9590     4.8120 HW1           1 RES     
   11833 HW2         17.0660    23.7750     5.7100 HW2           1 RES     
   11834 OW           2.1630    12.1820    21.1680 OW            1 RES     
   11835 HW1          2.4460    13.0110    21.6500 HW1           1 RES     
   11836 HW2          1.2180    11.9610    21.4100 HW2           1 RES     
   11837 OW          39.0420    11.1540    23.8770 OW            1 RES     
   11838 HW1         38.8490    10.6100    23.0610 HW1           1 RES     
   11839 HW2         38.1830    11.4920    24.2630 HW2           1 RES     
   11840 OW          14.1910    34.5840    15.7720 OW            1 RES     
   11841 HW1         14.9990    34.0620    15.5000 HW1           1 RES     
   11842 HW2         14.3060    34.9140    16.7090 HW2           1 RES     
   11843 OW          24.0860    31.2870     3.9320 OW            1 RES     
   11844 HW1         24.6980    31.1480     3.1540 HW1           1 RES     
   11845 HW2         23.1790    31.5490     3.6000 HW2           1 RES     
   11846 OW          22.1050    23.1020     3.2570 OW            1 RES     
   11847 HW1         22.8170    23.5600     2.7250 HW1           1 RES     
   11848 HW2         21.3770    23.7530     3.4710 HW2           1 RES     
   11849 OW          25.0620    10.0070     4.1780 OW            1 RES     
   11850 HW1         25.1270     9.3520     3.4260 HW1           1 RES     
   11851 HW2         24.5630    10.8180     3.8730 HW2           1 RES     
   11852 OW          57.0540    41.8890     9.6440 OW            1 RES     
   11853 HW1         56.4580    42.3840     9.0130 HW1           1 RES     
   11854 HW2         57.0780    42.3650    10.5230 HW2           1 RES     
   11855 OW          37.7300    29.6230    18.4890 OW            1 RES     
   11856 HW1         36.8030    29.9530    18.3120 HW1           1 RES     
   11857 HW2         38.3920    30.2940    18.1560 HW2           1 RES     
   11858 OW          60.4960    36.8470    12.1220 OW            1 RES     
   11859 HW1         60.6280    35.8580    12.0870 HW1           1 RES     
   11860 HW2         59.6650    37.0910    11.6210 HW2           1 RES     
   11861 OW          59.2180    26.8240    16.1720 OW            1 RES     
   11862 HW1         59.2030    27.7680    15.8460 HW1           1 RES     
   11863 HW2         58.7290    26.2390    15.5250 HW2           1 RES     
   11864 OW          34.0850    44.1450     9.2710 OW            1 RES     
   11865 HW1         34.1610    44.9860     9.8060 HW1           1 RES     
   11866 HW2         33.1420    43.8130     9.3030 HW2           1 RES     
   11867 OW           8.6770    15.4920    21.5820 OW            1 RES     
   11868 HW1          8.0470    16.1220    21.1290 HW1           1 RES     
   11869 HW2          9.6190    15.7810    21.4100 HW2           1 RES     
   11870 OW          57.2790    13.1090     0.0230 OW            1 RES     
   11871 HW1         57.4780    12.1300     0.0000 HW1           1 RES     
   11872 HW2         56.2890    13.2480     0.0390 HW2           1 RES     
   11873 OW           3.5550    32.1240    11.3510 OW            1 RES     
   11874 HW1          2.6890    31.7000    11.6140 HW1           1 RES     
   11875 HW2          4.2410    31.4130    11.1940 HW2           1 RES     
   11876 OW          40.9820    44.3460     0.7600 OW            1 RES     
   11877 HW1         40.9150    43.7010     0.0000 HW1           1 RES     
   11878 HW2         41.1000    45.2720     0.4030 HW2           1 RES     
   11879 OW          55.2210    25.9110    18.5000 OW            1 RES     
   11880 HW1         55.2620    24.9130    18.4770 HW1           1 RES     
   11881 HW2         54.3470    26.2190    18.1240 HW2           1 RES     
   11882 OW           7.3590    17.8100     9.4370 OW            1 RES     
   11883 HW1          7.6820    16.9590     9.8480 HW1           1 RES     
   11884 HW2          8.1310    18.4340     9.3100 HW2           1 RES     
   11885 OW           4.9830     6.9220    15.8840 OW            1 RES     
   11886 HW1          4.7260     7.8850    15.9540 HW1           1 RES     
   11887 HW2          5.9790     6.8390    15.9070 HW2           1 RES     
   11888 OW           9.1030    30.5640     4.4800 OW            1 RES     
   11889 HW1          8.2020    30.8310     4.8190 HW1           1 RES     
   11890 HW2          9.6600    31.3810     4.3310 HW2           1 RES     
   11891 OW          51.3500    13.1020    11.9560 OW            1 RES     
   11892 HW1         51.6730    13.8600    11.3910 HW1           1 RES     
   11893 HW2         50.6960    13.4440    12.6310 HW2           1 RES     
   11894 OW          45.6330    32.2020     2.7650 OW            1 RES     
   11895 HW1         44.6580    31.9960     2.8320 HW1           1 RES     
   11896 HW2         45.7660    33.1940     2.7600 HW2           1 RES     
   11897 OW          38.2490    21.9470    16.9710 OW            1 RES     
   11898 HW1         38.6970    22.3050    17.7910 HW1           1 RES     
   11899 HW2         38.8000    21.2070    16.5860 HW2           1 RES     
   11900 OW          24.2850    45.3130     8.5950 OW            1 RES     
   11901 HW1         23.8070    46.1890     8.6480 HW1           1 RES     
   11902 HW2         25.2680    45.4750     8.5040 HW2           1 RES     
   11903 OW          59.9170    44.1860     5.8280 OW            1 RES     
   11904 HW1         58.9940    44.0610     5.4670 HW1           1 RES     
   11905 HW2         60.3480    43.2930     5.9610 HW2           1 RES     
   11906 OW          43.9260     6.5220    20.0090 OW            1 RES     
   11907 HW1         44.2470     5.5750    20.0030 HW1           1 RES     
   11908 HW2         44.7090     7.1410    19.9540 HW2           1 RES     
   11909 OW          30.5350    46.5900     1.9070 OW            1 RES     
   11910 HW1         30.2130    46.5150     0.9630 HW1           1 RES     
   11911 HW2         31.4360    46.1640     1.9870 HW2           1 RES     
   11912 OW          31.1470    38.8540    19.1650 OW            1 RES     
   11913 HW1         30.6900    39.7260    18.9880 HW1           1 RES     
   11914 HW2         30.4620    38.1310    19.2560 HW2           1 RES     
   11915 OW          37.9700    31.5610     0.7160 OW            1 RES     
   11916 HW1         37.7670    31.9850     1.5980 HW1           1 RES     
   11917 HW2         37.3170    31.8880     0.0320 HW2           1 RES     
   11918 OW          51.8920     6.1740    24.2310 OW            1 RES     
   11919 HW1         52.3050     5.2720    24.1100 HW1           1 RES     
   11920 HW2         50.8960     6.0940    24.1850 HW2           1 RES     
   11921 OW          21.2590    37.3670     1.6670 OW            1 RES     
   11922 HW1         21.9930    36.9240     1.1540 HW1           1 RES     
   11923 HW2         20.3810    37.1760     1.2260 HW2           1 RES     
   11924 OW          21.0990    16.2170    19.5490 OW            1 RES     
   11925 HW1         20.7050    17.0010    20.0270 HW1           1 RES     
   11926 HW2         20.3720    15.6990    19.1000 HW2           1 RES     
   11927 OW           5.8140    40.8510    23.7990 OW            1 RES     
   11928 HW1          6.6610    40.8480    23.2690 HW1           1 RES     
   11929 HW2          6.0270    40.9710    24.7690 HW2           1 RES     
   11930 OW          31.6980    45.1230    15.3110 OW            1 RES     
   11931 HW1         31.0550    44.3720    15.1620 HW1           1 RES     
   11932 HW2         31.2020    45.9250    15.6470 HW2           1 RES     
   11933 OW          26.3960    15.4510    21.3010 OW            1 RES     
   11934 HW1         26.2480    14.5840    20.8270 HW1           1 RES     
   11935 HW2         25.5140    15.8430    21.5630 HW2           1 RES     
   11936 OW          48.1180    35.5340     1.9020 OW            1 RES     
   11937 HW1         49.0970    35.5740     2.0970 HW1           1 RES     
   11938 HW2         47.8360    34.5790     1.8040 HW2           1 RES     
   11939 OW          44.4250    44.3770     0.6090 OW            1 RES     
   11940 HW1         44.6760    45.2610     0.2150 HW1           1 RES     
   11941 HW2         45.0200    43.6640     0.2370 HW2           1 RES     
   11942 OW          59.3180     5.7810     9.4120 OW            1 RES     
   11943 HW1         59.0390     4.8660     9.7040 HW1           1 RES     
   11944 HW2         58.5680     6.4240     9.5690 HW2           1 RES     
   11945 OW           4.2510    30.4610    18.6350 OW            1 RES     
   11946 HW1          4.7290    31.1350    19.1980 HW1           1 RES     
   11947 HW2          3.9490    30.8920    17.7840 HW2           1 RES     
   11948 OW          42.1740    25.6940    18.3300 OW            1 RES     
   11949 HW1         42.9780    25.2980    18.7720 HW1           1 RES     
   11950 HW2         42.2950    25.6740    17.3380 HW2           1 RES     
   11951 OW          19.9090    15.5410    22.5550 OW            1 RES     
   11952 HW1         19.8320    14.6830    22.0480 HW1           1 RES     
   11953 HW2         19.3460    16.2410    22.1160 HW2           1 RES     
   11954 OW          15.5740     8.6950    17.8700 OW            1 RES     
   11955 HW1         16.0570     7.8510    18.1000 HW1           1 RES     
   11956 HW2         16.1410     9.4820    18.1170 HW2           1 RES     
   11957 OW           4.6390    46.2980    15.5540 OW            1 RES     
   11958 HW1          4.1510    45.9380    16.3490 HW1           1 RES     
   11959 HW2          4.7830    45.5640    14.8910 HW2           1 RES     
   11960 OW          42.7570    32.1980     6.9720 OW            1 RES     
   11961 HW1         42.7410    32.9930     7.5780 HW1           1 RES     
   11962 HW2         43.6530    31.7560     7.0250 HW2           1 RES     
   11963 OW          48.0120    33.3160    12.7390 OW            1 RES     
   11964 HW1         48.9470    33.3380    12.3850 HW1           1 RES     
   11965 HW2         48.0120    33.6030    13.6970 HW2           1 RES     
   11966 OW          38.6780     0.6920     9.5950 OW            1 RES     
   11967 HW1         39.5370     0.3330     9.2310 HW1           1 RES     
   11968 HW2         38.2620     0.0120    10.1990 HW2           1 RES     
   11969 OW          25.8660    37.9680     4.2880 OW            1 RES     
   11970 HW1         25.1010    37.5850     4.8040 HW1           1 RES     
   11971 HW2         26.5090    37.2390     4.0530 HW2           1 RES     
   11972 OW          34.5020    36.5990    19.6930 OW            1 RES     
   11973 HW1         33.5940    36.2340    19.8950 HW1           1 RES     
   11974 HW2         35.1820    35.8710    19.7840 HW2           1 RES     
   11975 OW          38.9900    41.8320    22.9800 OW            1 RES     
   11976 HW1         39.2590    40.8760    23.0860 HW1           1 RES     
   11977 HW2         39.8040    42.3950    22.8330 HW2           1 RES     
   11978 OW          47.2820    28.2080     3.6440 OW            1 RES     
   11979 HW1         46.3080    28.4190     3.5670 HW1           1 RES     
   11980 HW2         47.7870    28.6990     2.9350 HW2           1 RES     
   11981 OW           7.6930    10.3870     5.3500 OW            1 RES     
   11982 HW1          8.4110    10.5630     4.6780 HW1           1 RES     
   11983 HW2          7.7870     9.4560     5.7030 HW2           1 RES     
   11984 OW          45.7270    16.2080     9.4680 OW            1 RES     
   11985 HW1         44.8560    16.6960     9.4410 HW1           1 RES     
   11986 HW2         46.4300    16.8020     9.8610 HW2           1 RES     
   11987 OW          26.1760    46.9630    24.1440 OW            1 RES     
   11988 HW1         26.3940    47.7320    24.7440 HW1           1 RES     
   11989 HW2         25.1850    46.8270    24.1220 HW2           1 RES     
   11990 OW          11.4550    48.3110    13.5900 OW            1 RES     
   11991 HW1         10.6170    48.8420    13.7070 HW1           1 RES     
   11992 HW2         12.1150    48.8420    13.0570 HW2           1 RES     
   11993 OW          43.2190     1.6330    14.1160 OW            1 RES     
   11994 HW1         43.1420     0.6720    14.3800 HW1           1 RES     
   11995 HW2         43.9520     2.0660    14.6410 HW2           1 RES     
   11996 OW          16.9000    14.7040     3.7350 OW            1 RES     
   11997 HW1         16.3790    15.5260     3.5090 HW1           1 RES     
   11998 HW2         17.8740    14.9270     3.7780 HW2           1 RES     
   11999 OW          37.5450    20.1990    11.4910 OW            1 RES     
   12000 HW1         38.0760    19.5040    11.9740 HW1           1 RES     
   12001 HW2         37.4370    19.9310    10.5340 HW2           1 RES     
   12002 OW          46.4670    43.5540     6.9600 OW            1 RES     
   12003 HW1         46.1930    44.4200     7.3770 HW1           1 RES     
   12004 HW2         47.4580    43.5460     6.8270 HW2           1 RES     
   12005 OW          31.2330    39.3840    15.3190 OW            1 RES     
   12006 HW1         32.1590    39.6820    15.0870 HW1           1 RES     
   12007 HW2         30.8320    38.9030    14.5400 HW2           1 RES     
   12008 OW          36.2000    35.4620    15.7530 OW            1 RES     
   12009 HW1         37.0380    35.8010    15.3270 HW1           1 RES     
   12010 HW2         36.4290    34.9630    16.5890 HW2           1 RES     
   12011 OW          27.2310    30.1840    18.8580 OW            1 RES     
   12012 HW1         28.0980    29.9140    18.4410 HW1           1 RES     
   12013 HW2         27.2490    29.9720    19.8350 HW2           1 RES     
   12014 OW          24.7820    23.6420    11.4540 OW            1 RES     
   12015 HW1         25.4710    24.3380    11.6570 HW1           1 RES     
   12016 HW2         23.8810    24.0730    11.3910 HW2           1 RES     
   12017 OW          29.6940    41.9580    19.3940 OW            1 RES     
   12018 HW1         28.9590    41.3230    19.1610 HW1           1 RES     
   12019 HW2         29.6840    42.1330    20.3790 HW2           1 RES     
   12020 OW          47.9110    46.8270    21.0050 OW            1 RES     
   12021 HW1         48.4850    46.2460    20.4290 HW1           1 RES     
   12022 HW2         48.1190    47.7880    20.8220 HW2           1 RES     
   12023 OW          23.3580    17.3110     2.3200 OW            1 RES     
   12024 HW1         23.0710    17.8920     1.5590 HW1           1 RES     
   12025 HW2         23.5640    16.3930     1.9800 HW2           1 RES     
   12026 OW          58.6910    16.0380    16.5350 OW            1 RES     
   12027 HW1         58.1030    16.8440    16.4830 HW1           1 RES     
   12028 HW2         59.5070    16.2540    17.0710 HW2           1 RES     
   12029 OW          27.6590     0.4200     9.2150 OW            1 RES     
   12030 HW1         28.2370     1.1360     9.6050 HW1           1 RES     
   12031 HW2         26.7670     0.8040     8.9750 HW2           1 RES     
   12032 OW          31.3710     4.6800     9.9730 OW            1 RES     
   12033 HW1         32.2530     4.2990     9.6980 HW1           1 RES     
   12034 HW2         31.3380     5.6510     9.7340 HW2           1 RES     
   12035 OW           6.4610     5.3690    21.2480 OW            1 RES     
   12036 HW1          6.6590     5.2390    20.2780 HW1           1 RES     
   12037 HW2          5.9500     6.2200    21.3740 HW2           1 RES     
   12038 OW          59.0810    24.5430    19.2170 OW            1 RES     
   12039 HW1         58.9510    23.5610    19.0900 HW1           1 RES     
   12040 HW2         60.0370    24.7790    19.0440 HW2           1 RES     
   12041 OW           5.6900    36.4410    10.8490 OW            1 RES     
   12042 HW1          6.5930    36.0420    10.6940 HW1           1 RES     
   12043 HW2          5.7250    37.4250    10.6740 HW2           1 RES     
   12044 OW           1.8780    21.5220     1.3990 OW            1 RES     
   12045 HW1          1.0090    21.1660     1.0580 HW1           1 RES     
   12046 HW2          2.3500    20.8110     1.9200 HW2           1 RES     
   12047 OW          44.2480    38.0090     1.8170 OW            1 RES     
   12048 HW1         43.6150    38.7370     1.5580 HW1           1 RES     
   12049 HW2         43.9050    37.5440     2.6330 HW2           1 RES     
   12050 OW          32.1450    41.4940     0.2970 OW            1 RES     
   12051 HW1         32.0360    41.9140     1.1970 HW1           1 RES     
   12052 HW2         32.1540    40.4980     0.3910 HW2           1 RES     
   12053 OW           7.8350    41.5900     6.5990 OW            1 RES     
   12054 HW1          6.8620    41.6910     6.3930 HW1           1 RES     
   12055 HW2          7.9440    41.1060     7.4680 HW2           1 RES     
   12056 OW          22.4900     3.4950    13.1000 OW            1 RES     
   12057 HW1         21.9030     4.2800    12.9050 HW1           1 RES     
   12058 HW2         22.7990     3.0870    12.2400 HW2           1 RES     
   12059 OW          57.2970     3.2770    16.8030 OW            1 RES     
   12060 HW1         57.1790     4.2330    16.5370 HW1           1 RES     
   12061 HW2         56.7790     3.0970    17.6390 HW2           1 RES     
   12062 OW           2.7990    33.1390    22.8820 OW            1 RES     
   12063 HW1          1.8910    32.7600    22.7060 HW1           1 RES     
   12064 HW2          3.0000    33.8490    22.2060 HW2           1 RES     
@<TRIPOS>BOND
       1     2999     3000 1
       2     3851     3852 1
       3     3419     3420 1
       4     2345     2346 1
       5     7229     7230 1
       6     3842     3843 1
       7     3617     3618 1
       8     1019     1018 1
       9     2219     2220 1
      10     4083     4084 1
      11     3581     3582 1
      12     2507     2508 1
      13     2874     2853 1
      14     3090     3069 1
      15     6038     6040 1
      16     5282     5284 1
      17     2766     2745 1
      18     6119     6121 1
      19     5444     5446 1
      20     5201     5203 1
      21     5957     5959 1
      22     7955     7957 1
      23     4360     4361 1
      24     2032     2033 1
      25     2060     2061 1
      26     4598     4600 1
      27     5264     5266 1
      28     6101     6103 1
      29     7937     7939 1
      30     6677     6678 1
      31     8081     8082 1
      32     5354     5355 1
      33     6731     6732 1
      34     5084     5085 1
      35     8324     8325 1
      36     8756     8757 1
      37     5246     5247 1
      38     5840     5841 1
      39     8095     8093 1
      40     5675     5677 1
      41     7754     7756 1
      42     7673     7675 1
      43     4919     4921 1
      44     1429     1428 1
      45     5756     5758 1
      46      247      246 1
      47     5918     5920 1
      48     5000     5002 1
      49     9509     9511 1
      50     7037     7038 1
      51     8387     8388 1
      52    11594    11595 1
      53     6875     6876 1
      54    11081    11082 1
      55     8225     8226 1
      56     9116     9117 1
      57     4610     4612 1
      58     3442     3445 1
      59     3017     3019 1
      60     3049     3050 1
      61     1777     1778 1
      62     3280     3283 1
      63     9512     9513 1
      64     2412     2413 1
      65     1689     1690 1
      66     8240     8241 1
      67     6161     6162 1
      68     5405     5406 1
      69     6998     6999 1
      70     7160     7161 1
      71     5999     6000 1
      72     4316     4317 1
      73     5753     5755 1
      74     4997     4999 1
      75     8669     8671 1
      76     7670     7672 1
      77     6752     6754 1
      78     6914     6916 1
      79     5915     5917 1
      80     2578     2580 1
      81     3889     3888 1
      82    11861    11862 1
      83      393      395 1
      84    10700    10701 1
      85     8945     8947 1
      86     5894     5896 1
      87     3541     3542 1
      88     7061     7062 1
      89     2660     2661 1
      90     8384     8385 1
      91     8978     8979 1
      92     7973     7975 1
      93     4976     4978 1
      94     8627     8628 1
      95     1462     1463 1
      96     8222     8223 1
      97     4589     4590 1
      98      640      641 1
      99     1726     1727 1
     100      751      752 1
     101     4186     4187 1
     102     5648     5650 1
     103    10382    10383 1
     104     2226     2205 1
     105    10544    10545 1
     106      980      983 1
     107      227      228 1
     108        8       11 1
     109     4326     4327 1
     110     4242     4243 1
     111    10274    10276 1
     112      338      337 1
     113    12029    12031 1
     114     9107     9109 1
     115      668      669 1
     116     1809     1808 1
     117     7949     7950 1
     118     8300     8301 1
     119     5276     5277 1
     120     6464     6465 1
     121     6113     6114 1
     122     5195     5196 1
     123     5951     5952 1
     124     5438     5439 1
     125     5465     5466 1
     126     7514     7516 1
     127     4904     4906 1
     128     1311     1313 1
     129     3472     3473 1
     130     8936     8937 1
     131     6695     6696 1
     132     6938     6939 1
     133     2935     2936 1
     134     8774     8775 1
     135     4191     4202 1
     136    10037    10039 1
     137    11954    11956 1
     138    11387    11389 1
     139     5312     5314 1
     140     6149     6151 1
     141     5393     5395 1
     142     1330     1331 1
     143      790      791 1
     144     7202     7204 1
     145     4583     4584 1
     146     4511     4512 1
     147     2200     2201 1
     148     1137     1138 1
     149     3869     3870 1
     150     4137     4138 1
     151     4235     4236 1
     152     5579     5580 1
     153     6335     6336 1
     154     3716     3717 1
     155     2100     2089 1
     156     4212     4213 1
     157     2010     1999 1
     158     4302     4303 1
     159     3722     3723 1
     160     3410     3411 1
     161     2210     2211 1
     162    11420    11422 1
     163     6965     6967 1
     164      960      961 1
     165    11828    11829 1
     166    11990    11991 1
     167     9992     9993 1
     168    10154    10155 1
     169    10730    10731 1
     170      376      377 1
     171     9044     9046 1
     172     6425     6427 1
     173     8882     8884 1
     174     2848     2850 1
     175     2308     2310 1
     176     7127     7129 1
     177     6803     6805 1
     178     8504     8506 1
     179     6587     6589 1
     180     1790     1791 1
     181     6177     6176 1
     182     8256     8255 1
     183    10685    10686 1
     184    10280    10281 1
     185     9686     9687 1
     186    10847    10848 1
     187     3330     3327 1
     188    12035    12036 1
     189    11765    11766 1
     190     1211     1212 1
     191     1890     1891 1
     192     2828     2829 1
     193     2900     2901 1
     194     7244     7246 1
     195      935      933 1
     196     5777     5778 1
     197     3355     3354 1
     198     6758     6760 1
     199     4652     4654 1
     200    10292    10294 1
     201    11804    11806 1
     202    11642    11644 1
     203     9563     9565 1
     204     9725     9727 1
     205    10454    10456 1
     206     5546     5548 1
     207     1831     1832 1
     208      128      129 1
     209     2844     2842 1
     210     1127     1128 1
     211      140      141 1
     212     8708     8709 1
     213     1485     1486 1
     214      288      289 1
     215     1288     1289 1
     216     1402     1403 1
     217     1510     1511 1
     218     1399     1400 1
     219     1817     1818 1
     220     1820     1821 1
     221     1479     1480 1
     222      390      391 1
     223     1232     1233 1
     224      470      471 1
     225     3512     3513 1
     226     9653     9654 1
     227    11408    11409 1
     228      924      925 1
     229    10286    10287 1
     230     3142     3143 1
     231     2806     2807 1
     232     3447     3448 1
     233     1503     1504 1
     234    10448    10449 1
     235     9797     9798 1
     236     9959     9960 1
     237    10202    10203 1
     238    10625    10627 1
     239    10787    10789 1
     240    10040    10041 1
     241     3388     3389 1
     242    11552    11553 1
     243     8732     8734 1
     244     5735     5737 1
     245     9245     9247 1
     246     7328     7330 1
     247     9083     9085 1
     248     7814     7816 1
     249     7652     7654 1
     250     5948     5950 1
     251     6653     6655 1
     252     4817     4819 1
     253     1873     1874 1
     254     6320     6321 1
     255      980      982 1
     256    11237    11238 1
     257     2054     2055 1
     258    10697    10698 1
     259     3601     3602 1
     260     2317     2318 1
     261     2428     2429 1
     262     3727     3728 1
     263     2539     2540 1
     264      879      881 1
     265     1995     1984 1
     266      569      570 1
     267     9683     9684 1
     268    11762    11763 1
     269     2130     2119 1
     270     1000     1001 1
     271     6884     6885 1
     272     6824     6826 1
     273     2281     2282 1
     274     6989     6991 1
     275     1754     1743 1
     276     7070     7072 1
     277     7151     7153 1
     278     5993     5995 1
     279     2846     2847 1
     280     2240     2241 1
     281     4008     4007 1
     282     4655     4657 1
     283     2787     2790 1
     284     4282     4283 1
     285     4372     4373 1
     286     1330     1309 1
     287     4140     4141 1
     288     5003     5005 1
     289     3014     3015 1
     290     1567     1570 1
     291     5093     5094 1
     292     6578     6579 1
     293    11135    11136 1
     294    11834    11836 1
     295     9998    10000 1
     296     2410     2412 1
     297    11996    11998 1
     298     3292     3291 1
     299    10160    10162 1
     300     1116     1117 1
     301      608      609 1
     302     6035     6037 1
     303     1605     1604 1
     304     7739     7741 1
     305     5228     5230 1
     306     1680     1681 1
     307     7184     7185 1
     308     5591     5592 1
     309     9263     9264 1
     310     4754     4755 1
     311     7901     7903 1
     312     1039     1040 1
     313     7427     7428 1
     314     7589     7590 1
     315     9425     9426 1
     316      818      820 1
     317     9569     9570 1
     318     5318     5320 1
     319     7991     7993 1
     320     7073     7075 1
     321     6299     6300 1
     322     6137     6138 1
     323     5300     5301 1
     324     6056     6057 1
     325     5381     5382 1
     326     8054     8055 1
     327     6785     6786 1
     328     8540     8541 1
     329     8135     8136 1
     330     6623     6624 1
     331     2214     2213 1
     332     3923     3922 1
     333     3912     3911 1
     334     7511     7513 1
     335     4838     4840 1
     336     7349     7351 1
     337     9347     9349 1
     338     3230     3229 1
     339     6798     6797 1
     340     7199     7200 1
     341     5606     5607 1
     342    12041    12043 1
     343    10124    10126 1
     344     9278     9279 1
     345    11204    11206 1
     346     4769     4770 1
     347     7442     7443 1
     348     3458     3459 1
     349    11042    11044 1
     350     6254     6256 1
     351     2252     2253 1
     352     2848     2851 1
     353     2308     2311 1
     354    10547    10549 1
     355    10142    10144 1
     356    12059    12061 1
     357    11222    11224 1
     358    10385    10387 1
     359    11384    11386 1
     360    11060    11062 1
     361     7229     7231 1
     362     3502     3501 1
     363     1157     1156 1
     364     3870     3871 1
     365     6431     6432 1
     366     8888     8889 1
     367     9050     9051 1
     368     6809     6810 1
     369     7133     7134 1
     370     8510     8511 1
     371     6593     6594 1
     372     8027     8029 1
     373      602      605 1
     374     2343     2344 1
     375     1459     1462 1
     376     6731     6733 1
     377     5084     5086 1
     378     6677     6679 1
     379     8594     8596 1
     380     8324     8326 1
     381     8756     8758 1
     382     5840     5842 1
     383     5354     5356 1
     384     8081     8083 1
     385     8189     8191 1
     386     9731     9733 1
     387      237      238 1
     388     1536     1537 1
     389      462      463 1
     390      371      372 1
     391     4811     4813 1
     392     1471     1472 1
     393     1147     1148 1
     394      963      964 1
     395      438      439 1
     396      693      694 1
     397    11489    11491 1
     398    11165    11167 1
     399    11246    11248 1
     400     3415     3416 1
     401     2097     2098 1
     402     4345     4346 1
     403     2066     2067 1
     404     3831     3832 1
     405     7811     7813 1
     406     4151     4150 1
     407     1145     1146 1
     408      599      600 1
     409      530      531 1
     410     5843     5844 1
     411     8921     8922 1
     412     7922     7923 1
     413     5087     5088 1
     414     8084     8085 1
     415     5249     5250 1
     416     5468     5469 1
     417     1347     1348 1
     418     2727     2728 1
     419     3801     3802 1
     420     1486     1487 1
     421     1699     1700 1
     422    11558    11560 1
     423     9803     9805 1
     424     9965     9967 1
     425    11369    11371 1
     426      116      117 1
     427     8978     8980 1
     428     8627     8629 1
     429     1386     1387 1
     430     6386     6388 1
     431    10901    10903 1
     432     1202     1203 1
     433     8222     8224 1
     434     4589     4591 1
     435     7061     7063 1
     436     8384     8386 1
     437    10820    10822 1
     438     3144     3123 1
     439     4201     4202 1
     440     1837     1838 1
     441     2785     2786 1
     442     2531     2533 1
     443     3107     3108 1
     444     4808     4809 1
     445     1592     1591 1
     446     1343     1342 1
     447       24       25 1
     448     3658     3659 1
     449     5483     5484 1
     450     6401     6402 1
     451     7778     7779 1
     452     5105     5106 1
     453     5861     5862 1
     454     8156     8157 1
     455     1983     1984 1
     456     4139     4140 1
     457     4228     4229 1
     458     4371     4372 1
     459     4318     4319 1
     460     4281     4282 1
     461     2740     2742 1
     462    10877    10879 1
     463    10607    10609 1
     464    10796    10798 1
     465    10769    10771 1
     466      834      833 1
     467      723      722 1
     468     4110     4111 1
     469     6653     6654 1
     470    11171    11172 1
     471    11495    11496 1
     472    11252    11253 1
     473      190      191 1
     474       76       77 1
     475     1612     1613 1
     476     2362     2365 1
     477     1220     1221 1
     478     1980     1981 1
     479     1421     1422 1
     480     1887     1888 1
     481     1783     1772 1
     482     3640     3639 1
     483     4865     4867 1
     484     7595     7597 1
     485     4367     4356 1
     486     4277     4266 1
     487     2779     2780 1
     488     2604     2583 1
     489     3468     3469 1
     490     3273     3276 1
     491     2047     2048 1
     492     1859     1860 1
     493    11237    11239 1
     494    10697    10699 1
     495     9506     9507 1
     496     2145     2146 1
     497     2896     2898 1
     498     1875     1876 1
     499     1851     1852 1
     500     3100     3101 1
     501     7034     7035 1
     502     2353     2354 1
     503     3308     3309 1
     504     9113     9114 1
     505     2557     2558 1
     506     2560     2561 1
     507     7115     7116 1
     508     9302     9303 1
     509     3556     3557 1
     510     6872     6873 1
     511     1263     1264 1
     512     1374     1375 1
     513     1152     1153 1
     514     4181     4182 1
     515     6689     6690 1
     516     8768     8769 1
     517      800      801 1
     518     6314     6315 1
     519     6098     6099 1
     520     5936     5937 1
     521     8393     8394 1
     522      952      953 1
     523     8555     8556 1
     524     1080     1079 1
     525     5180     5181 1
     526     6476     6477 1
     527      255      254 1
     528    10529    10530 1
     529     2590     2591 1
     530    10907    10908 1
     531     4241     4242 1
     532     1092     1093 1
     533     1956     1957 1
     534     2812     2813 1
     535     4208     4209 1
     536    11147    11148 1
     537    11471    11472 1
     538     2416     2417 1
     539    11228    11229 1
     540     4331     4332 1
     541     4925     4927 1
     542     5006     5008 1
     543     5762     5764 1
     544     5924     5926 1
     545     7760     7762 1
     546     1021     1022 1
     547     7679     7681 1
     548     5681     5683 1
     549     9515     9517 1
     550     9368     9370 1
     551     3794     3796 1
     552      300      299 1
     553     1573     1574 1
     554     7667     7668 1
     555     5750     5751 1
     556     5669     5670 1
     557     4994     4995 1
     558     1889     1890 1
     559      571      572 1
     560     7748     7749 1
     561     5912     5913 1
     562     4371     4382 1
     563     9503     9504 1
     564     4281     4292 1
     565      460      461 1
     566     3491     3492 1
     567     3468     3447 1
     568     3036     3015 1
     569     2444     2446 1
     570     3705     3708 1
     571     4862     4864 1
     572     2386     2385 1
     573    10511    10513 1
     574    11213    11215 1
     575    10970    10972 1
     576     1682     1683 1
     577    10592    10594 1
     578    11051    11053 1
     579    10430    10432 1
     580    11132    11134 1
     581     2375     2374 1
     582     2774     2775 1
     583     2996     2997 1
     584     3323     3324 1
     585     2885     2886 1
     586     3746     3747 1
     587      993      994 1
     588     3946     3945 1
     589     3635     3636 1
     590     3296     3297 1
     591     3509     3510 1
     592      204      205 1
     593       30       31 1
     594       93       94 1
     595     2119     2120 1
     596     5198     5200 1
     597     2504     2505 1
     598      659      660 1
     599     1492     1471 1
     600     1168     1147 1
     601    11909    11910 1
     602     9830     9831 1
     603    10073    10074 1
     604     4622     4624 1
     605     1012     1013 1
     606     9206     9208 1
     607     7289     7291 1
     608     1354     1351 1
     609     2124     2125 1
     610     9320     9322 1
     611     4730     4732 1
     612     4409     4411 1
     613     8321     8323 1
     614     6890     6892 1
     615     5972     5974 1
     616     6728     6730 1
     617     7727     7729 1
     618     6566     6568 1
     619     5216     5218 1
     620    10892    10893 1
     621    10811    10812 1
     622     8651     8652 1
     623     1606     1607 1
     624     1912     1913 1
     625      187      188 1
     626     1298     1300 1
     627     3046     3047 1
     628     2092     2093 1
     629     2740     2743 1
     630     2176     2177 1
     631     7430     7431 1
     632     5594     5595 1
     633     8861     8862 1
     634     7106     7107 1
     635     8699     8700 1
     636     9266     9267 1
     637     7025     7026 1
     638     1382     1383 1
     639     4757     4758 1
     640     6059     6060 1
     641     2203     2204 1
     642     2552     2554 1
     643     4754     4756 1
     644     7184     7186 1
     645     9425     9427 1
     646     9263     9265 1
     647     7427     7429 1
     648     5591     5593 1
     649     7589     7591 1
     650      120      121 1
     651     4643     4644 1
     652     3563     3564 1
     653    10538    10539 1
     654     3094     3092 1
     655    10727    10728 1
     656    10376    10377 1
     657     3345     3346 1
     658     6137     6139 1
     659     5300     5302 1
     660     6056     6058 1
     661     5381     5383 1
     662     6785     6787 1
     663     8135     8137 1
     664     8054     8056 1
     665     8540     8542 1
     666     6299     6301 1
     667     6623     6625 1
     668     4718     4719 1
     669     7472     7473 1
     670     6095     6096 1
     671     1215     1216 1
     672     9389     9390 1
     673     8714     8715 1
     674     8849     8850 1
     675     5555     5556 1
     676     5258     5259 1
     677     1592     1593 1
     678     1343     1344 1
     679     2227     2228 1
     680      872      875 1
     681      144      145 1
     682      607      608 1
     683     2799     2800 1
     684     3339     3340 1
     685    10544    10546 1
     686    10382    10384 1
     687     2652     2653 1
     688     3507     3508 1
     689     2439     2440 1
     690    10115    10116 1
     691     1734     1735 1
     692     4027     4028 1
     693     1789     1790 1
     694     2170     2171 1
     695     7004     7005 1
     696     6626     6627 1
     697     6788     6789 1
     698     7166     7167 1
     699     8543     8544 1
     700     5205     5204 1
     701      896      897 1
     702     6371     6372 1
     703     8612     8613 1
     704     8639     8640 1
     705     2392     2393 1
     706     1170     1171 1
     707     1418     1419 1
     708     2716     2717 1
     709     8450     8451 1
     710     8477     8478 1
     711     8801     8802 1
     712     1123     1124 1
     713    10298    10300 1
     714     9947     9949 1
     715    11459    11461 1
     716     3171     3172 1
     717    11810    11812 1
     718     3125     3126 1
     719    10865    10867 1
     720     3545     3546 1
     721    11648    11650 1
     722      921      922 1
     723     3437     3438 1
     724      624      625 1
     725      513      514 1
     726    10691    10693 1
     727     2028     2029 1
     728     3220     3222 1
     729     2647     2646 1
     730     2536     2535 1
     731     4988     4989 1
     732     7742     7743 1
     733     5906     5907 1
     734     6905     6906 1
     735     4880     4881 1
     736     1670     1671 1
     737      282      281 1
     738     1933     1934 1
     739     5012     5013 1
     740     6281     6282 1
     741      276      275 1
     742     2482     2483 1
     743      154      155 1
     744     8990     8992 1
     745     6074     6076 1
     746     2541     2542 1
     747     7829     7831 1
     748    11255    11257 1
     749    10175    10177 1
     750     9743     9745 1
     751    11660    11662 1
     752     9905     9907 1
     753     8828     8830 1
     754    10337    10339 1
     755    10742    10744 1
     756      284      283 1
     757     1355     1356 1
     758      179      180 1
     759      646      645 1
     760     2591     2592 1
     761     2813     2814 1
     762      841      842 1
     763     1755     1756 1
     764    10550    10551 1
     765     1950     1939 1
     766    10388    10389 1
     767      730      731 1
     768     3344     3345 1
     769     3151     3152 1
     770     3052     3053 1
     771      893      894 1
     772     1100     1101 1
     773       62       65 1
     774    10871    10873 1
     775    10466    10468 1
     776     9953     9955 1
     777    10304    10306 1
     778    11033    11035 1
     779    10115    10117 1
     780     3781     3782 1
     781     1163     1164 1
     782     1700     1701 1
     783      620      621 1
     784     1157     1158 1
     785     2280     2281 1
     786     5483     5485 1
     787     5861     5863 1
     788     3658     3660 1
     789     6401     6403 1
     790     7778     7780 1
     791     5105     5107 1
     792     8156     8158 1
     793     3112     3114 1
     794      692      693 1
     795      147      148 1
     796     2876     2877 1
     797     2584     2585 1
     798     7088     7089 1
     799     7007     7008 1
     800     7169     7170 1
     801     1044     1045 1
     802      856      857 1
     803     1235     1236 1
     804     1022     1023 1
     805     8960     8961 1
     806     9041     9042 1
     807     1783     1784 1
     808     6800     6801 1
     809     7043     7044 1
     810     2436     2435 1
     811     3081     3080 1
     812     7124     7125 1
     813     7205     7206 1
     814     8879     8880 1
     815     9599     9600 1
     816    11192    11193 1
     817     1948     1949 1
     818     2037     2038 1
     819     1256     1255 1
     820    11825    11826 1
     821     3454     3455 1
     822     3571     3572 1
     823     3929     3930 1
     824    11987    11988 1
     825      330      331 1
     826     9989     9990 1
     827    10151    10152 1
     828     2956     2957 1
     829    11408    11410 1
     830     9653     9655 1
     831     4147     4148 1
     832     5192     5194 1
     833     6650     6652 1
     834     2714     2716 1
     835     7955     7956 1
     836      872      874 1
     837    10886    10887 1
     838     9617     9618 1
     839    11885    11886 1
     840     4532     4533 1
     841    11696    11697 1
     842    11534    11535 1
     843     9779     9780 1
     844    11723    11724 1
     845     1227     1228 1
     846     1659     1660 1
     847     2505     2506 1
     848      915      916 1
     849      585      586 1
     850     3378     3379 1
     851     3267     3268 1
     852     1596     1597 1
     853     2824     2825 1
     854      339      341 1
     855     2616     2617 1
     856      231      233 1
     857      838      839 1
     858      625      626 1
     859    11018    11020 1
     860    10856    10858 1
     861     9938     9940 1
     862     2639     2640 1
     863     2685     2686 1
     864    10100    10102 1
     865      565      566 1
     866     1003     1004 1
     867     7115     7117 1
     868     9113     9115 1
     869     9302     9304 1
     870     7034     7036 1
     871      994      995 1
     872      446      447 1
     873     1543     1544 1
     874     9140     9142 1
     875     6872     6874 1
     876     4517     4519 1
     877     3989     3990 1
     878     6689     6691 1
     879     8768     8770 1
     880     3661     3662 1
     881    11972    11973 1
     882    10703    10704 1
     883     3037     3038 1
     884     6314     6316 1
     885     8393     8395 1
     886     6098     6100 1
     887     5936     5938 1
     888     5180     5182 1
     889     6476     6478 1
     890     8555     8557 1
     891      813      814 1
     892     4631     4633 1
     893     1262     1263 1
     894      950      951 1
     895     1151     1152 1
     896     4009     4010 1
     897     2379     2380 1
     898     7187     7188 1
     899     3103     3104 1
     900     2890     2891 1
     901    11942    11944 1
     902     2776     2777 1
     903     2677     2678 1
     904    10025    10027 1
     905     3616     3615 1
     906     3304     3303 1
     907     2671     2672 1
     908    11429    11431 1
     909     3899     3898 1
     910    11105    11107 1
     911     1244     1246 1
     912     1136     1138 1
     913     1107     1108 1
     914     5435     5436 1
     915     3368     3367 1
     916     7940     7941 1
     917     5267     5268 1
     918     8318     8319 1
     919     6725     6726 1
     920     6563     6564 1
     921     5429     5430 1
     922     6023     6024 1
     923     2686     2687 1
     924     2069     2070 1
     925     1178     1179 1
     926      288      287 1
     927     8267     8269 1
     928     8024     8026 1
     929     6350     6352 1
     930     5351     5353 1
     931     8186     8188 1
     932     6269     6271 1
     933     6188     6190 1
     934     8105     8107 1
     935     2103     2104 1
     936     9758     9759 1
     937    10259    10261 1
     938     6956     6957 1
     939    11771    11773 1
     940    10178    10180 1
     941     9854     9856 1
     942     9920     9921 1
     943     9650     9651 1
     944    10340    10342 1
     945    11852    11854 1
     946     7574     7575 1
     947     1041     1042 1
     948     1087     1088 1
     949     5975     5977 1
     950     3707     3708 1
     951     8996     8997 1
     952     5162     5163 1
     953     7835     7836 1
     954     6080     6081 1
     955     8834     8835 1
     956     7529     7530 1
     957     3140     3141 1
     958     2451     2452 1
     959    10673    10674 1
     960     9674     9675 1
     961     3213     3214 1
     962    10835    10836 1
     963    11753    11754 1
     964      332      333 1
     965     1504     1505 1
     966     1141     1140 1
     967    11402    11403 1
     968     2122     2121 1
     969    11138    11139 1
     970    10976    10977 1
     971      548      551 1
     972      224      227 1
     973    11219    11220 1
     974    10949    10950 1
     975     1881     1882 1
     976     1415     1416 1
     977     1951     1940 1
     978    11057    11058 1
     979     2982     2961 1
     980     2701     2702 1
     981     2710     2711 1
     982     1959     1960 1
     983      444      445 1
     984     4132     4133 1
     985     1552     1553 1
     986     9215     9217 1
     987       86       87 1
     988     3549     3548 1
     989     1289     1290 1
     990     7274     7275 1
     991     6707     6708 1
     992     6950     6951 1
     993     9029     9030 1
     994     8948     8949 1
     995     9191     9192 1
     996     8786     8787 1
     997     3709     3710 1
     998     3835     3836 1
     999     2548     2549 1
    1000     2724     2725 1
    1001     3486     3487 1
    1002     2211     2212 1
    1003     5033     5034 1
    1004      173      174 1
    1005    10505    10507 1
    1006    11207    11209 1
    1007    10586    10588 1
    1008    10964    10966 1
    1009    11045    11047 1
    1010    10424    10426 1
    1011    11126    11128 1
    1012    11873    11875 1
    1013    12062    12064 1
    1014    10145    10147 1
    1015     4430     4431 1
    1016     7472     7474 1
    1017     6095     6097 1
    1018     9389     9391 1
    1019     4718     4720 1
    1020     8714     8716 1
    1021     8849     8851 1
    1022     5555     5557 1
    1023     1222     1223 1
    1024     5258     5260 1
    1025       66       67 1
    1026     1273     1274 1
    1027    11351    11353 1
    1028    11513    11515 1
    1029    11324    11326 1
    1030    11000    11002 1
    1031     3761     3762 1
    1032     3329     3330 1
    1033     2459     2458 1
    1034      212      213 1
    1035     2698     2697 1
    1036     3855     3856 1
    1037     3531     3532 1
    1038     4469     4471 1
    1039      342      343 1
    1040      181      180 1
    1041     2756     2757 1
    1042     3293     3294 1
    1043     3806     3807 1
    1044     2288     2289 1
    1045     1500     1501 1
    1046      675      676 1
    1047     2475     2476 1
    1048     9974     9975 1
    1049    11378    11379 1
    1050     2035     2036 1
    1051     6713     6715 1
    1052     4058     4047 1
    1053     2760     2761 1
    1054    12038    12040 1
    1055    11498    11500 1
    1056    11336    11338 1
    1057    10121    10123 1
    1058      182      183 1
    1059     2200     2202 1
    1060     4104     4105 1
    1061     3940     3941 1
    1062     6501     6500 1
    1063    11441    11442 1
    1064      665      666 1
    1065     2506     2507 1
    1066      464      465 1
    1067     2611     2612 1
    1068     3268     3269 1
    1069     6317     6319 1
    1070    11006    11008 1
    1071    11330    11332 1
    1072     4988     4990 1
    1073     6905     6907 1
    1074      198      200 1
    1075     7742     7744 1
    1076     5906     5908 1
    1077     4880     4882 1
    1078     7406     7408 1
    1079     8108     8110 1
    1080     1682     1685 1
    1081     4532     4534 1
    1082    10886    10888 1
    1083     9617     9619 1
    1084    11723    11725 1
    1085    11885    11887 1
    1086    11696    11698 1
    1087    11534    11536 1
    1088     9779     9781 1
    1089     4307     4308 1
    1090      487      490 1
    1091      689      690 1
    1092     3310     3311 1
    1093    11297    11299 1
    1094     1482     1483 1
    1095      396      397 1
    1096      297      298 1
    1097     1371     1372 1
    1098      408      409 1
    1099     1158     1159 1
    1100     1460     1462 1
    1101     6122     6123 1
    1102     9335     9336 1
    1103     5285     5286 1
    1104     7499     7500 1
    1105     5150     5151 1
    1106     7904     7905 1
    1107     6041     6042 1
    1108     6581     6582 1
    1109     8228     8229 1
    1110     5231     5232 1
    1111      521      522 1
    1112     3956     3957 1
    1113      206      207 1
    1114     1874     1875 1
    1115     1574     1577 1
    1116    11636    11637 1
    1117    11798    11799 1
    1118     9557     9558 1
    1119     2278     2279 1
    1120    11474    11475 1
    1121     1713     1714 1
    1122     3352     3353 1
    1123    11150    11151 1
    1124     9689     9690 1
    1125    11606    11607 1
    1126     9878     9879 1
    1127    11957    11958 1
    1128     2875     2876 1
    1129     6896     6898 1
    1130     7733     7735 1
    1131     5978     5980 1
    1132     5222     5224 1
    1133     7895     7897 1
    1134     8810     8812 1
    1135     1231     1232 1
    1136     7238     7240 1
    1137      548      550 1
    1138     9671     9672 1
    1139      224      226 1
    1140    11750    11751 1
    1141      369      370 1
    1142     7608     7607 1
    1143     3918     3919 1
    1144     2619     2620 1
    1145     2220     2221 1
    1146     2508     2509 1
    1147      795      796 1
    1148     2394     2395 1
    1149     1017     1018 1
    1150      906      907 1
    1151     9485     9486 1
    1152     4403     4405 1
    1153    10991    10993 1
    1154    11315    11317 1
    1155    11072    11074 1
    1156     3611     3612 1
    1157     2423     2424 1
    1158     2469     2470 1
    1159     1319     1320 1
    1160     4724     4725 1
    1161     1004     1005 1
    1162     3580     3581 1
    1163      238      239 1
    1164     3910     3911 1
    1165     7007     7009 1
    1166     8315     8316 1
    1167     1642     1643 1
    1168     6722     6723 1
    1169     7169     7171 1
    1170      457      458 1
    1171      244      245 1
    1172     7088     7090 1
    1173       58       59 1
    1174      174      175 1
    1175     1490     1489 1
    1176     3469     3470 1
    1177     7043     7045 1
    1178     9041     9043 1
    1179     8879     8881 1
    1180     8960     8962 1
    1181     7124     7126 1
    1182     6800     6802 1
    1183     7205     7207 1
    1184     4228     4227 1
    1185     3062     3063 1
    1186     4415     4417 1
    1187     4535     4537 1
    1188      437      438 1
    1189     1517     1518 1
    1190     1842     1843 1
    1191      153      154 1
    1192     4388     4390 1
    1193     2626     2628 1
    1194    10916    10918 1
    1195     2669     2670 1
    1196     7337     7338 1
    1197     6419     6420 1
    1198     7961     7963 1
    1199      392      393 1
    1200     1364     1365 1
    1201     1688     1689 1
    1202      767      768 1
    1203     2207     2208 1
    1204     8927     8929 1
    1205     9332     9334 1
    1206     6740     6742 1
    1207     8090     8092 1
    1208     5255     5257 1
    1209     8333     8335 1
    1210     4742     4744 1
    1211     5093     5095 1
    1212     5849     5851 1
    1213     6578     6580 1
    1214      363      362 1
    1215     1033     1034 1
    1216     9857     9858 1
    1217    11774    11775 1
    1218    10937    10938 1
    1219     4382     4383 1
    1220     4292     4293 1
    1221     2135     2136 1
    1222      580      581 1
    1223     7028     7029 1
    1224     7379     7380 1
    1225     5813     5814 1
    1226     9134     9135 1
    1227     7109     7110 1
    1228     4949     4950 1
    1229     7460     7461 1
    1230     5057     5058 1
    1231     5651     5652 1
    1232     5732     5733 1
    1233      191      192 1
    1234       62       64 1
    1235     8873     8874 1
    1236     7619     7621 1
    1237     5702     5704 1
    1238     3277     3278 1
    1239     7700     7702 1
    1240     7538     7540 1
    1241     5783     5785 1
    1242     9455     9457 1
    1243     6458     6460 1
    1244     8294     8296 1
    1245     5459     5461 1
    1246    10205    10207 1
    1247      535      534 1
    1248    11285    11287 1
    1249    10043    10045 1
    1250     4538     4540 1
    1251     4035     4036 1
    1252     3010     3013 1
    1253     3256     3257 1
    1254     3592     3593 1
    1255     2212     2213 1
    1256     1947     1948 1
    1257     2036     2037 1
    1258     1944     1945 1
    1259     1627     1628 1
    1260     3330     3331 1
    1261     2527     2528 1
    1262     9293     9294 1
    1263     9131     9132 1
    1264     1475     1476 1
    1265      842      843 1
    1266     1846     1845 1
    1267     7940     7942 1
    1268     5429     5431 1
    1269     8318     8320 1
    1270     6725     6727 1
    1271     6563     6565 1
    1272     2686     2688 1
    1273     6839     6841 1
    1274     5267     5269 1
    1275     6023     6025 1
    1276     5774     5775 1
    1277    11591    11592 1
    1278     1304     1305 1
    1279     4034     4035 1
    1280     3535     3536 1
    1281     2336     2337 1
    1282     9005     9006 1
    1283     8924     8925 1
    1284     1741     1742 1
    1285     6224     6225 1
    1286     8843     8844 1
    1287     1507     1508 1
    1288      745      746 1
    1289     1814     1815 1
    1290     1678     1676 1
    1291     1101     1102 1
    1292     1550     1551 1
    1293    11726    11727 1
    1294      551      552 1
    1295     3041     3042 1
    1296     5129     5131 1
    1297     3155     3154 1
    1298     2269     2270 1
    1299     2583     2584 1
    1300     1417     1418 1
    1301     3936     3937 1
    1302     5732     5734 1
    1303     4024     4025 1
    1304     2139     2140 1
    1305      605      606 1
    1306     4736     4737 1
    1307     9326     9327 1
    1308     8327     8328 1
    1309     4898     4899 1
    1310     6734     6735 1
    1311     3169     3170 1
    1312     6572     6573 1
    1313     5927     5928 1
    1314       60       61 1
    1315     6047     6048 1
    1316     5291     5292 1
    1317     5372     5373 1
    1318     8045     8046 1
    1319     8126     8127 1
    1320    11339    11341 1
    1321     3587     3588 1
    1322     6290     6291 1
    1323     6128     6129 1
    1324    10577    10579 1
    1325    10928    10930 1
    1326    10334    10336 1
    1327    10658    10660 1
    1328    10496    10498 1
    1329     3286     3287 1
    1330     3177     3178 1
    1331      682      661 1
    1332     2307     2308 1
    1333     3711     3712 1
    1334     2261     2262 1
    1335      728      729 1
    1336     4188     4189 1
    1337     5876     5877 1
    1338     3343     3341 1
    1339     3360     3361 1
    1340     3900     3901 1
    1341     7910     7912 1
    1342     5237     5239 1
    1343     5189     5190 1
    1344     2844     2841 1
    1345     4913     4914 1
    1346     3862     3863 1
    1347     1961     1962 1
    1348     2456     2457 1
    1349     2567     2568 1
    1350     3827     3829 1
    1351     3530     3531 1
    1352     5930     5931 1
    1353     3047     3048 1
    1354     2285     2286 1
    1355     6347     6348 1
    1356     6185     6186 1
    1357     8264     8265 1
    1358     8102     8103 1
    1359      931      932 1
    1360     1979     1980 1
    1361      160      161 1
    1362     4059     4048 1
    1363     5021     5023 1
    1364     7775     7777 1
    1365     5102     5104 1
    1366     5858     5860 1
    1367    10553    10555 1
    1368    10904    10906 1
    1369    10310    10312 1
    1370     7856     7858 1
    1371    10634    10636 1
    1372    10472    10474 1
    1373     7609     7607 1
    1374     7706     7707 1
    1375     1361     1362 1
    1376       80       81 1
    1377      863      864 1
    1378     1721     1722 1
    1379      311      312 1
    1380     4466     4467 1
    1381     4514     4515 1
    1382     7889     7891 1
    1383     6953     6954 1
    1384     8396     8398 1
    1385      170      173 1
    1386     4293     4294 1
    1387     4383     4384 1
    1388     9161     9163 1
    1389     5549     5550 1
    1390     8900     8901 1
    1391     4257     4258 1
    1392     4167     4168 1
    1393     4347     4348 1
    1394     8228     8230 1
    1395       25       26 1
    1396     9671     9673 1
    1397    11750    11752 1
    1398     1130     1129 1
    1399     3753     3754 1
    1400      206      205 1
    1401     2172     2171 1
    1402      760      761 1
    1403     8357     8358 1
    1404     3340     3341 1
    1405     5522     5523 1
    1406     6980     6981 1
    1407      814      815 1
    1408     3242     3241 1
    1409     1809     1810 1
    1410     1272     1273 1
    1411      673      674 1
    1412     6341     6342 1
    1413     6179     6180 1
    1414     5855     5856 1
    1415     7772     7773 1
    1416     8096     8097 1
    1417     8258     8259 1
    1418     5099     5100 1
    1419    11111    11112 1
    1420    10868    10869 1
    1421    11300    11301 1
    1422       61       62 1
    1423    11030    11031 1
    1424      169      170 1
    1425      123      124 1
    1426     3473     3474 1
    1427     4073     4074 1
    1428    11096    11097 1
    1429     1832     1833 1
    1430     4297     4298 1
    1431     4269     4270 1
    1432     4056     4057 1
    1433     3712     3713 1
    1434     9599     9601 1
    1435    11192    11194 1
    1436     3604     3605 1
    1437      805      806 1
    1438     3902     3904 1
    1439      533      534 1
    1440      755      756 1
    1441      123      125 1
    1442     4436     4437 1
    1443    11507    11508 1
    1444     4676     4677 1
    1445    11588    11589 1
    1446    11345    11346 1
    1447     2860     2861 1
    1448     2971     2972 1
    1449     3585     3586 1
    1450      832      833 1
    1451    11288    11290 1
    1452     7808     7809 1
    1453     4751     4752 1
    1454     9260     9261 1
    1455     7424     7425 1
    1456     7181     7182 1
    1457     5588     5589 1
    1458     7586     7587 1
    1459     9422     9423 1
    1460     4367     4368 1
    1461     4277     4278 1
    1462       35       36 1
    1463     9335     9337 1
    1464     6581     6583 1
    1465     7499     7501 1
    1466     7904     7906 1
    1467     6041     6043 1
    1468     6122     6124 1
    1469      688      689 1
    1470     4295     4296 1
    1471     4205     4206 1
    1472     5150     5152 1
    1473    10799    10801 1
    1474     3283     3284 1
    1475     7817     7819 1
    1476     4090     4091 1
    1477      836      837 1
    1478     1049     1050 1
    1479     2712     2713 1
    1480     2832     2833 1
    1481     2886     2887 1
    1482     3754     3755 1
    1483     2734     2736 1
    1484     7223     7225 1
    1485     3788     3787 1
    1486     3503     3505 1
    1487     8309     8310 1
    1488     6473     6474 1
    1489      570      571 1
    1490     1326     1327 1
    1491     5468     5470 1
    1492     3155     3156 1
    1493     6632     6634 1
    1494     7010     7012 1
    1495     2178     2179 1
    1496     6794     6796 1
    1497     7172     7174 1
    1498     8549     8551 1
    1499      315      316 1
    1500     3969     3970 1
    1501     6614     6616 1
    1502     8531     8533 1
    1503     6776     6778 1
    1504     7514     7515 1
    1505     7163     7164 1
    1506     7082     7083 1
    1507     9350     9351 1
    1508     7352     7353 1
    1509     7001     7002 1
    1510     4351     4352 1
    1511     4261     4262 1
    1512     4841     4842 1
    1513      422      423 1
    1514     1496     1497 1
    1515     3961     3962 1
    1516     7322     7324 1
    1517     9239     9241 1
    1518     9077     9079 1
    1519     5714     5715 1
    1520     7631     7632 1
    1521     8009     8010 1
    1522     5336     5337 1
    1523     5795     5796 1
    1524     6173     6174 1
    1525     8252     8253 1
    1526     7712     7713 1
    1527     6254     6255 1
    1528     5417     5418 1
    1529     3881     3883 1
    1530    11600    11602 1
    1531     5213     5214 1
    1532     7886     7887 1
    1533     7337     7339 1
    1534     6419     6421 1
    1535     4025     4026 1
    1536      331      332 1
    1537     3924     3925 1
    1538     1126     1127 1
    1539      979      980 1
    1540      933      934 1
    1541     5864     5865 1
    1542     5108     5109 1
    1543     5027     5028 1
    1544     7781     7782 1
    1545     7862     7863 1
    1546     6818     6819 1
    1547     7919     7921 1
    1548     5963     5964 1
    1549     3211     3212 1
    1550     5246     5248 1
    1551     3600     3599 1
    1552     4475     4476 1
    1553     9647     9648 1
    1554     2481     2482 1
    1555     3891     3892 1
    1556     9890     9891 1
    1557    11888    11889 1
    1558     2268     2269 1
    1559     3678     3679 1
    1560    11969    11970 1
    1561     2636     2637 1
    1562     1299     1300 1
    1563     7028     7030 1
    1564     5813     5815 1
    1565     8702     8704 1
    1566     9134     9136 1
    1567     4787     4789 1
    1568     5651     5653 1
    1569     7568     7570 1
    1570     4949     4951 1
    1571     7460     7462 1
    1572     5057     5059 1
    1573     2995     2996 1
    1574     5804     5805 1
    1575     3466     3467 1
    1576     1750     1749 1
    1577     3738     3717 1
    1578      918      917 1
    1579     1119     1118 1
    1580      807      806 1
    1581     4213     4214 1
    1582      126      127 1
    1583     4303     4304 1
    1584     4266     4267 1
    1585     4051     4052 1
    1586     4053     4054 1
    1587    11219    11221 1
    1588    10949    10951 1
    1589    10976    10978 1
    1590     2659     2660 1
    1591    10706    10708 1
    1592    11057    11059 1
    1593    11138    11140 1
    1594     1456     1457 1
    1595     3081     3082 1
    1596     2544     2545 1
    1597    11033    11034 1
    1598     5543     5545 1
    1599     2298     2297 1
    1600     7058     7059 1
    1601     8975     8976 1
    1602     6545     6546 1
    1603     6383     6384 1
    1604     8624     8625 1
    1605     7220     7221 1
    1606     8462     8463 1
    1607     9428     9430 1
    1608      255      256 1
    1609      483      484 1
    1610     3807     3808 1
    1611     2397     2398 1
    1612     7925     7927 1
    1613    10910    10912 1
    1614     1622     1624 1
    1615     4643     4645 1
    1616      557      558 1
    1617      344      345 1
    1618     9005     9007 1
    1619     8924     8926 1
    1620     4187     4188 1
    1621     8843     8845 1
    1622    11090    11092 1
    1623    11333    11335 1
    1624    11009    11011 1
    1625     4478     4479 1
    1626      574      575 1
    1627     4607     4608 1
    1628      898      899 1
    1629     2959     2960 1
    1630    11864    11866 1
    1631     9866     9868 1
    1632    11783    11785 1
    1633    10244    10246 1
    1634    10406    10408 1
    1635     1376     1377 1
    1636     2895     2898 1
    1637     4313     4314 1
    1638     3428     3427 1
    1639     4134     4135 1
    1640     3897     3898 1
    1641     3561     3562 1
    1642     4040     4041 1
    1643      710      711 1
    1644      911      912 1
    1645      587      588 1
    1646     1850     1851 1
    1647      374      375 1
    1648      200      201 1
    1649       26       27 1
    1650     1426     1427 1
    1651     9521     9522 1
    1652       50       51 1
    1653     7049     7050 1
    1654     9047     9048 1
    1655     6806     6807 1
    1656     7130     7131 1
    1657     7211     7212 1
    1658     8966     8967 1
    1659     8885     8886 1
    1660     1465     1466 1
    1661    10829    10830 1
    1662    10667    10668 1
    1663     1419     1420 1
    1664     9668     9669 1
    1665    11747    11748 1
    1666     4202     4203 1
    1667     4222     4223 1
    1668    11174    11176 1
    1669     9581     9583 1
    1670     1394     1395 1
    1671     4412     4413 1
    1672     4610     4611 1
    1673     2185     2184 1
    1674     3007     3008 1
    1675    11225    11226 1
    1676    11144    11145 1
    1677    10955    10956 1
    1678       82       83 1
    1679     3006     3003 1
    1680    10982    10983 1
    1681    10712    10713 1
    1682    11063    11064 1
    1683     2837     2838 1
    1684     4895     4896 1
    1685     2637     2638 1
    1686     4308     4309 1
    1687     6347     6349 1
    1688     8264     8266 1
    1689     6185     6187 1
    1690     2106     2107 1
    1691     1865     1866 1
    1692     8102     8104 1
    1693     4436     4438 1
    1694    11507    11509 1
    1695     4676     4678 1
    1696    11588    11590 1
    1697    11345    11347 1
    1698     4916     4917 1
    1699     2878     2879 1
    1700     4739     4740 1
    1701     4901     4902 1
    1702     9329     9330 1
    1703     3664     3665 1
    1704     3630     3631 1
    1705     9410     9411 1
    1706     7493     7494 1
    1707     5576     5577 1
    1708    10379    10381 1
    1709     4142     4131 1
    1710    10772    10773 1
    1711    11108    11110 1
    1712     9146     9147 1
    1713     1238     1239 1
    1714     1241     1242 1
    1715     6449     6450 1
    1716     8285     8286 1
    1717     5450     5451 1
    1718     6206     6207 1
    1719      953      954 1
    1720     3959     3960 1
    1721    11501    11502 1
    1722    11582    11583 1
    1723    11339    11340 1
    1724     1829     1830 1
    1725      552      553 1
    1726     3926     3927 1
    1727    10499    10500 1
    1728    10958    10959 1
    1729    11201    11202 1
    1730    10580    10581 1
    1731    11039    11040 1
    1732    10418    10419 1
    1733    11120    11121 1
    1734     7949     7951 1
    1735     8300     8302 1
    1736     6464     6466 1
    1737     5195     5197 1
    1738     5276     5278 1
    1739     6113     6115 1
    1740     5951     5953 1
    1741     5438     5440 1
    1742     5465     5467 1
    1743     6542     6544 1
    1744     7451     7453 1
    1745      586      587 1
    1746      389      390 1
    1747     2282     2284 1
    1748    11453    11454 1
    1749    11912    11913 1
    1750     4460     4461 1
    1751    10076    10077 1
    1752    11372    11373 1
    1753     9833     9834 1
    1754     3987     3988 1
    1755     2329     2330 1
    1756     2980     2981 1
    1757     4908     4907 1
    1758     3181     3182 1
    1759     1901     1902 1
    1760      375      376 1
    1761     1449     1450 1
    1762      261      262 1
    1763      292      293 1
    1764     1894     1883 1
    1765     3225     3226 1
    1766     3179     3180 1
    1767     4233     4234 1
    1768     1535     1536 1
    1769     3376     3377 1
    1770     6452     6453 1
    1771     8288     8289 1
    1772     1216     1217 1
    1773     5453     5454 1
    1774     8357     8359 1
    1775     6209     6210 1
    1776     3975     3976 1
    1777     5522     5524 1
    1778     1327     1328 1
    1779     1105     1106 1
    1780     3988     3977 1
    1781     6980     6982 1
    1782     1621     1624 1
    1783     3927     3928 1
    1784     7772     7774 1
    1785     6341     6343 1
    1786     6179     6181 1
    1787     2130     2131 1
    1788     5855     5857 1
    1789     5099     5101 1
    1790     8096     8098 1
    1791     3815     3816 1
    1792     3167     3168 1
    1793     8258     8260 1
    1794     1259     1260 1
    1795    11411    11412 1
    1796     2798     2799 1
    1797      904      905 1
    1798      252      251 1
    1799    11861    11863 1
    1800    10700    10702 1
    1801      156      155 1
    1802     3863     3864 1
    1803     3641     3642 1
    1804     2879     2880 1
    1805     8201     8202 1
    1806      105      106 1
    1807      335      336 1
    1808     3394     3395 1
    1809     3146     3147 1
    1810     4457     4458 1
    1811     1778     1779 1
    1812     3053     3054 1
    1813     8765     8767 1
    1814     6767     6769 1
    1815     9197     9199 1
    1816     9035     9037 1
    1817     8684     8686 1
    1818     6848     6850 1
    1819     7280     7282 1
    1820     8603     8605 1
    1821       68       67 1
    1822     6686     6688 1
    1823     1960     1961 1
    1824      661      662 1
    1825     6749     6751 1
    1826     6830     6832 1
    1827     6668     6670 1
    1828     8585     8587 1
    1829     8666     8668 1
    1830     8747     8749 1
    1831     6911     6913 1
    1832     1919     1920 1
    1833      170      172 1
    1834     9305     9306 1
    1835     6470     6471 1
    1836     7658     7659 1
    1837     5741     5742 1
    1838     8738     8739 1
    1839     4823     4824 1
    1840     7820     7821 1
    1841     4442     4444 1
    1842     4682     4684 1
    1843     4041     4042 1
    1844     2902     2905 1
    1845     2794     2797 1
    1846     9488     9489 1
    1847     7550     7552 1
    1848      325      328 1
    1849     1405     1408 1
    1850     5780     5781 1
    1851     5177     5179 1
    1852     8309     8311 1
    1853     6473     6475 1
    1854     4203     4204 1
    1855      393      394 1
    1856      439      440 1
    1857     2250     2251 1
    1858     3219     3222 1
    1859     2820     2821 1
    1860     3792     3793 1
    1861     3165     3168 1
    1862       89       90 1
    1863     4571     4572 1
    1864     3864     3865 1
    1865    10268    10269 1
    1866    12023    12024 1
    1867      275      274 1
    1868     7163     7165 1
    1869     7082     7084 1
    1870     9350     9352 1
    1871     3092     3093 1
    1872     7352     7354 1
    1873     4841     4843 1
    1874     7001     7003 1
    1875     5036     5037 1
    1876     5360     5361 1
    1877     2025     2026 1
    1878     8195     8196 1
    1879     8033     8034 1
    1880     6278     6279 1
    1881      706      707 1
    1882     1209     1210 1
    1883     2537     2538 1
    1884     2648     2649 1
    1885     1115     1116 1
    1886    10733    10734 1
    1887     1601     1602 1
    1888       68       69 1
    1889     7307     7308 1
    1890     1772     1773 1
    1891      537      538 1
    1892      750      751 1
    1893     1558     1559 1
    1894     7109     7111 1
    1895     2832     2831 1
    1896     8354     8355 1
    1897     8435     8436 1
    1898     5519     5520 1
    1899      168      169 1
    1900     9017     9018 1
    1901     9179     9180 1
    1902     7262     7263 1
    1903    10685    10687 1
    1904    10847    10849 1
    1905    10280    10282 1
    1906     9686     9688 1
    1907    12035    12037 1
    1908    11765    11767 1
    1909     4655     4656 1
    1910     1741     1730 1
    1911     1732     1733 1
    1912      133      134 1
    1913     2419     2420 1
    1914     9677     9679 1
    1915    10919    10921 1
    1916    11756    11758 1
    1917     3881     3882 1
    1918     3063     3064 1
    1919     3111     3114 1
    1920     8144     8145 1
    1921      682      683 1
    1922     3510     3511 1
    1923     8576     8577 1
    1924     4111     4112 1
    1925     8066     8067 1
    1926     9281     9282 1
    1927     6068     6069 1
    1928     1891     1892 1
    1929     1918     1917 1
    1930      882      883 1
    1931     1658     1659 1
    1932      266      267 1
    1933     1595     1596 1
    1934     3290     3291 1
    1935     9296     9297 1
    1936     9314     9315 1
    1937     8912     8913 1
    1938     8993     8994 1
    1939     8831     8832 1
    1940      417      418 1
    1941      966      967 1
    1942      429      430 1
    1943     4430     4432 1
    1944     8207     8209 1
    1945     8369     8371 1
    1946     8720     8722 1
    1947     6641     6643 1
    1948     9797     9799 1
    1949     9959     9961 1
    1950    10202    10204 1
    1951    10040    10042 1
    1952     3388     3390 1
    1953    11552    11554 1
    1954     7446     7445 1
    1955     3223     3224 1
    1956      758      760 1
    1957     9683     9685 1
    1958    11762    11764 1
    1959     1980     1969 1
    1960     1802     1803 1
    1961     1706     1707 1
    1962     4712     4713 1
    1963     7049     7051 1
    1964     8966     8968 1
    1965     9047     9049 1
    1966     7130     7132 1
    1967     6806     6808 1
    1968     7211     7213 1
    1969     8885     8887 1
    1970    11453    11455 1
    1971    11912    11914 1
    1972     4460     4462 1
    1973    10076    10078 1
    1974    11372    11374 1
    1975     9833     9835 1
    1976     2706     2707 1
    1977     2493     2494 1
    1978     3021     3022 1
    1979     6971     6972 1
    1980     2126     2127 1
    1981     3846     3847 1
    1982      812      814 1
    1983     2429     2430 1
    1984     8987     8988 1
    1985     8906     8907 1
    1986     8825     8826 1
    1987       29       30 1
    1988       92       93 1
    1989     9545     9546 1
    1990     9707     9708 1
    1991    11840    11841 1
    1992    12002    12003 1
    1993    11624    11625 1
    1994    11528    11529 1
    1995    10880    10881 1
    1996     1287     1288 1
    1997    11717    11718 1
    1998     2704     2705 1
    1999    11879    11880 1
    2000     3778     3779 1
    2001      525      526 1
    2002    10526    10527 1
    2003    11111    11113 1
    2004    11930    11931 1
    2005    10868    10870 1
    2006    11300    11302 1
    2007    10013    10014 1
    2008    10364    10365 1
    2009    11030    11032 1
    2010    11363    11364 1
    2011    11093    11094 1
    2012     3739     3740 1
    2013     8084     8086 1
    2014     5843     5845 1
    2015     8921     8923 1
    2016     7922     7924 1
    2017     5087     5089 1
    2018     5249     5251 1
    2019     6482     6483 1
    2020     5615     5617 1
    2021    11999    12000 1
    2022    11318    11319 1
    2023    10994    10995 1
    2024    11426    11427 1
    2025     1852     1841 1
    2026     3817     3818 1
    2027     2521     2522 1
    2028      903      904 1
    2029     5367     5366 1
    2030      447      449 1
    2031     3117     3118 1
    2032     3071     3072 1
    2033      992      993 1
    2034      230      231 1
    2035     4739     4741 1
    2036     9329     9331 1
    2037     4901     4903 1
    2038      338      339 1
    2039     9410     9412 1
    2040     7493     7495 1
    2041     5576     5578 1
    2042     4457     4459 1
    2043     4577     4579 1
    2044     4505     4507 1
    2045     6326     6327 1
    2046     4127     4128 1
    2047     9146     9148 1
    2048     7685     7687 1
    2049     6449     6451 1
    2050     8285     8287 1
    2051     5450     5452 1
    2052     6206     6208 1
    2053     3602     3603 1
    2054     2234     2235 1
    2055     7541     7542 1
    2056     2585     2586 1
    2057      381      382 1
    2058     4161     4162 1
    2059     4288     4289 1
    2060     9494     9496 1
    2061     1988     1989 1
    2062     3878     3879 1
    2063     3672     3673 1
    2064     3129     3130 1
    2065     2373     2374 1
    2066     2782     2783 1
    2067       82       81 1
    2068     1002     1003 1
    2069     2547     2546 1
    2070     8648     8649 1
    2071     3914     3915 1
    2072     2291     2292 1
    2073     3365     3366 1
    2074     2216     2217 1
    2075     9251     9253 1
    2076     7334     7336 1
    2077     9089     9091 1
    2078     9209     9210 1
    2079     9290     9291 1
    2080      189      190 1
    2081     1276     1255 1
    2082     9128     9129 1
    2083      823      824 1
    2084     7292     7293 1
    2085     3442     3443 1
    2086     3133     3134 1
    2087     3127     3128 1
    2088     2926     2927 1
    2089      792      794 1
    2090      636      637 1
    2091     4312     4313 1
    2092     4133     4134 1
    2093     2238     2239 1
    2094      808      809 1
    2095     6407     6408 1
    2096     8351     8352 1
    2097     5111     5112 1
    2098     8162     8163 1
    2099     6974     6975 1
    2100     7784     7785 1
    2101     5867     5868 1
    2102     5489     5490 1
    2103     5516     5517 1
    2104       74       75 1
    2105     8411     8412 1
    2106     6443     6444 1
    2107    11231    11233 1
    2108    10718    10720 1
    2109     9962     9964 1
    2110    10232    10234 1
    2111    11555    11557 1
    2112     6524     6525 1
    2113    10394    10396 1
    2114     7412     7413 1
    2115     6605     6606 1
    2116     9800     9802 1
    2117     1609     1610 1
    2118     4661     4662 1
    2119     2407     2408 1
    2120     5795     5797 1
    2121     4097     4098 1
    2122      541      544 1
    2123     3388     3391 1
    2124      306      308 1
    2125     1494     1496 1
    2126     8201     8203 1
    2127     2313     2314 1
    2128     1473     1474 1
    2129     3933     3934 1
    2130     3067     3068 1
    2131     5219     5221 1
    2132     7892     7894 1
    2133     8375     8376 1
    2134     8726     8727 1
    2135     8213     8214 1
    2136     6647     6648 1
    2137     1222     1201 1
    2138    10493    10494 1
    2139      710      713 1
    2140     4667     4668 1
    2141     3000     3001 1
    2142    11699    11700 1
    2143    10295    10296 1
    2144    11537    11538 1
    2145     9620     9621 1
    2146     9782     9783 1
    2147    10457    10458 1
    2148     3292     3293 1
    2149     1412     1413 1
    2150     2452     2453 1
    2151     2989     2990 1
    2152     3490     3492 1
    2153     3325     3326 1
    2154     7877     7878 1
    2155     7067     7068 1
    2156    11516    11517 1
    2157    10598    10599 1
    2158    11354    11355 1
    2159    10436    10437 1
    2160     4055     4054 1
    2161     4178     4177 1
    2162     4156     4157 1
    2163     7532     7534 1
    2164     4300     4301 1
    2165     4050     4051 1
    2166      138      139 1
    2167     4180     4181 1
    2168     1970     1971 1
    2169     1779     1780 1
    2170     6178     6176 1
    2171     8257     8255 1
    2172     3385     3386 1
    2173     1338     1339 1
    2174     3832     3833 1
    2175     3156     3157 1
    2176      804      805 1
    2177     2869     2870 1
    2178     1480     1481 1
    2179    11855    11857 1
    2180    10694    10696 1
    2181     2938     2939 1
    2182     5036     5038 1
    2183     5360     5362 1
    2184     8033     8035 1
    2185     8735     8737 1
    2186    11252    11254 1
    2187    11495    11497 1
    2188    11171    11173 1
    2189     8195     8197 1
    2190     6278     6280 1
    2191     7871     7873 1
    2192     6569     6570 1
    2193     2736     2737 1
    2194     6308     6309 1
    2195      726      727 1
    2196     4198     4199 1
    2197     2949     2952 1
    2198     2521     2520 1
    2199     2349     2350 1
    2200     1085     1086 1
    2201     4037     4038 1
    2202      278      279 1
    2203     3101     3102 1
    2204     7688     7689 1
    2205     6770     6771 1
    2206     2990     2991 1
    2207     2339     2340 1
    2208     3752     3753 1
    2209     5771     5772 1
    2210      149      150 1
    2211     1562     1563 1
    2212     1871     1872 1
    2213     8708     8710 1
    2214     3593     3594 1
    2215     4298     4299 1
    2216     9641     9642 1
    2217     4057     4058 1
    2218     1311     1312 1
    2219     1357     1358 1
    2220    11567    11568 1
    2221      602      604 1
    2222    11396    11397 1
    2223     4332     4333 1
    2224    11147    11149 1
    2225    11228    11230 1
    2226     2416     2418 1
    2227    11471    11473 1
    2228     2155     2156 1
    2229     4871     4872 1
    2230     2104     2105 1
    2231     1400     1401 1
    2232     1818     1819 1
    2233     1712     1713 1
    2234    11549    11550 1
    2235    10010    10011 1
    2236    11711    11712 1
    2237     2909     2911 1
    2238       79       80 1
    2239     9632     9633 1
    2240     2369     2371 1
    2241     3271     3272 1
    2242     3160     3161 1
    2243     9794     9795 1
    2244     3118     3121 1
    2245     6068     6070 1
    2246     8066     8068 1
    2247     9281     9283 1
    2248     8489     8491 1
    2249     2790     2791 1
    2250     3654     3655 1
    2251     3360     3339 1
    2252     8993     8995 1
    2253     3813     3816 1
    2254     8912     8914 1
    2255     8831     8833 1
    2256    11318    11320 1
    2257    10994    10996 1
    2258    11426    11428 1
    2259      501      503 1
    2260     4355     4356 1
    2261     4175     4176 1
    2262     2744     2745 1
    2263     9386     9388 1
    2264     2120     2121 1
    2265     3319     3320 1
    2266     3532     3533 1
    2267     1824     1813 1
    2268    10028    10030 1
    2269      942      943 1
    2270     1368     1369 1
    2271     1053     1054 1
    2272      831      832 1
    2273     1056     1057 1
    2274      305      306 1
    2275     8339     8340 1
    2276     8231     8232 1
    2277     1168     1169 1
    2278     5396     5397 1
    2279     6152     6153 1
    2280     5990     5991 1
    2281     5504     5505 1
    2282     6221     6222 1
    2283    10691    10692 1
    2284     3568     3569 1
    2285     2494     2495 1
    2286     3231     3232 1
    2287     9986     9987 1
    2288     3496     3497 1
    2289    11984    11985 1
    2290    11822    11823 1
    2291    10148    10149 1
    2292     2091     2092 1
    2293     5390     5392 1
    2294    11126    11127 1
    2295     6626     6628 1
    2296     8543     8545 1
    2297     6788     6790 1
    2298     7004     7006 1
    2299     8486     8488 1
    2300     7166     7168 1
    2301      143      142 1
    2302     4805     4807 1
    2303      491      492 1
    2304     1610     1611 1
    2305      416      417 1
    2306     5513     5515 1
    2307     3412     3413 1
    2308     3724     3725 1
    2309     2502     2503 1
    2310     2613     2614 1
    2311     3051     3052 1
    2312     3162     3163 1
    2313    10883    10885 1
    2314    10613    10615 1
    2315    10802    10804 1
    2316     2747     2748 1
    2317     2793     2794 1
    2318     2855     2856 1
    2319     3919     3920 1
    2320    11897    11898 1
    2321     2284     2285 1
    2322    11195    11196 1
    2323    11735    11736 1
    2324     9602     9603 1
    2325     2395     2396 1
    2326     9098     9100 1
    2327     2825     2826 1
    2328     3145     3146 1
    2329     8987     8989 1
    2330     8906     8908 1
    2331     8825     8827 1
    2332     3170     3171 1
    2333     3278     3279 1
    2334     3557     3558 1
    2335     3603     3604 1
    2336     4368     4369 1
    2337     4278     4279 1
    2338     3740     3742 1
    2339    10481    10482 1
    2340     2835     2836 1
    2341     4970     4972 1
    2342     3554     3555 1
    2343     3420     3421 1
    2344     2664     2665 1
    2345     3436     3438 1
    2346    10538    10540 1
    2347    10727    10729 1
    2348    10376    10378 1
    2349      926      927 1
    2350     1570     1571 1
    2351     2351     2352 1
    2352     8957     8958 1
    2353     3533     3534 1
    2354     2663     2664 1
    2355     3755     3756 1
    2356     9440     9442 1
    2357     2750     2751 1
    2358     3086     3087 1
    2359     6551     6553 1
    2360     6389     6391 1
    2361     7118     7120 1
    2362     8711     8713 1
    2363     8630     8632 1
    2364     8468     8470 1
    2365     4592     4593 1
    2366     8873     8875 1
    2367      879      880 1
    2368    11342    11343 1
    2369    10127    10128 1
    2370    11504    11505 1
    2371    11648    11649 1
    2372      277      278 1
    2373    12044    12045 1
    2374     2649     2650 1
    2375     6479     6481 1
    2376     2862     2863 1
    2377     4733     4734 1
    2378     9323     9324 1
    2379     2655     2656 1
    2380     8558     8560 1
    2381     9395     9397 1
    2382     9026     9027 1
    2383     7271     7272 1
    2384     9404     9405 1
    2385     5570     5571 1
    2386     7487     7488 1
    2387      110      112 1
    2388     7079     7081 1
    2389     5324     5326 1
    2390     7997     7999 1
    2391     4095     4096 1
    2392     6242     6244 1
    2393     4125     4126 1
    2394     6038     6039 1
    2395    10853    10855 1
    2396     9638     9640 1
    2397    11837    11838 1
    2398     6119     6120 1
    2399     5282     5283 1
    2400    10001    10002 1
    2401     5444     5445 1
    2402    11015    11017 1
    2403     5201     5202 1
    2404     3766     3769 1
    2405     7706     7708 1
    2406     6011     6013 1
    2407     2416     2419 1
    2408     3550     3551 1
    2409     2163     2164 1
    2410     5675     5676 1
    2411     7673     7674 1
    2412     5756     5757 1
    2413     7754     7755 1
    2414     5000     5001 1
    2415     9509     9510 1
    2416     5918     5919 1
    2417     4919     4920 1
    2418     3997     3998 1
    2419     9290     9292 1
    2420     9128     9130 1
    2421     1329     1328 1
    2422      774      773 1
    2423     9209     9211 1
    2424     7292     7294 1
    2425     3442     3444 1
    2426    10241    10242 1
    2427    10403    10404 1
    2428     5489     5491 1
    2429     6407     6409 1
    2430     8351     8353 1
    2431     5111     5113 1
    2432     7784     7786 1
    2433     8162     8164 1
    2434     6974     6976 1
    2435     5867     5869 1
    2436     2758     2757 1
    2437     5516     5518 1
    2438     3685     3686 1
    2439     5663     5664 1
    2440     5744     5745 1
    2441     7661     7662 1
    2442     8660     8661 1
    2443     2226     2227 1
    2444     6902     6904 1
    2445    11462    11463 1
    2446     2187     2188 1
    2447      656      659 1
    2448     2501     2502 1
    2449     2612     2613 1
    2450     1060     1039 1
    2451     1554     1553 1
    2452     3892     3893 1
    2453     1065     1066 1
    2454     4086     4075 1
    2455    10733    10735 1
    2456      256      257 1
    2457     3621     3622 1
    2458     3732     3733 1
    2459     9218     9219 1
    2460     8705     8706 1
    2461     7112     7113 1
    2462     8867     8868 1
    2463     7301     7302 1
    2464     2137     2138 1
    2465    11096    11098 1
    2466     6602     6604 1
    2467     4475     4477 1
    2468     9152     9153 1
    2469     6398     6399 1
    2470     8153     8154 1
    2471     7397     7398 1
    2472     5480     5481 1
    2473     7235     7236 1
    2474     1208     1209 1
    2475     9476     9477 1
    2476    10550    10552 1
    2477    10388    10390 1
    2478     4505     4506 1
    2479     2817     2816 1
    2480     7877     7879 1
    2481     7067     7069 1
    2482     4631     4632 1
    2483     1438     1439 1
    2484    11729    11730 1
    2485     1046     1045 1
    2486    11690    11692 1
    2487       58       55 1
    2488     2631     2632 1
    2489      938      939 1
    2490      515      516 1
    2491      401      402 1
    2492     5120     5121 1
    2493     3098     3099 1
    2494     3395     3397 1
    2495     3749     3750 1
    2496     2987     2988 1
    2497     3860     3861 1
    2498     4381     4382 1
    2499     2618     2619 1
    2500     4886     4887 1
    2501     8723     8724 1
    2502     8642     8643 1
    2503     8804     8805 1
    2504     4424     4425 1
    2505     2362     2363 1
    2506     8480     8481 1
    2507     6644     6645 1
    2508    11423    11424 1
    2509    10055    10056 1
    2510     4478     4480 1
    2511     7505     7507 1
    2512      913      914 1
    2513     7343     7345 1
    2514     4832     4834 1
    2515     4115     4104 1
    2516     2956     2958 1
    2517     9341     9343 1
    2518       34       13 1
    2519     4113     4114 1
    2520     3958     3957 1
    2521     7232     7233 1
    2522      958      957 1
    2523      946      947 1
    2524     1159     1160 1
    2525     1483     1484 1
    2526    10307    10308 1
    2527    10226    10227 1
    2528     1696     1697 1
    2529    10064    10065 1
    2530     1477     1478 1
    2531     1424     1425 1
    2532    10739    10740 1
    2533    10469    10470 1
    2534     7604     7605 1
    2535     7688     7690 1
    2536     5771     5773 1
    2537     6770     6772 1
    2538       90       92 1
    2539     1268     1267 1
    2540     3862     3861 1
    2541     2303     2304 1
    2542       45       44 1
    2543     3792     3771 1
    2544     4356     4357 1
    2545     4547     4548 1
    2546     3996     3997 1
    2547     2667     2668 1
    2548     2778     2779 1
    2549     3540     3541 1
    2550     1409     1410 1
    2551     2115     2116 1
    2552     4517     4518 1
    2553     1038     1039 1
    2554     2432     2433 1
    2555     6395     6396 1
    2556     8636     8637 1
    2557     5477     5478 1
    2558     8474     8475 1
    2559     8150     8151 1
    2560     1565     1564 1
    2561     8798     8799 1
    2562      908      907 1
    2563     6638     6639 1
    2564     8717     8718 1
    2565     6032     6033 1
    2566     9923     9924 1
    2567     9761     9762 1
    2568    11678    11679 1
    2569    10760    10761 1
    2570     2945     2946 1
    2571    10826    10827 1
    2572    10745    10746 1
    2573    10664    10665 1
    2574       36       37 1
    2575     1224     1226 1
    2576    10715    10716 1
    2577     9707     9709 1
    2578     9545     9547 1
    2579    11840    11842 1
    2580    12002    12004 1
    2581     2073     2074 1
    2582    11624    11626 1
    2583     6707     6709 1
    2584     8948     8950 1
    2585     9029     9031 1
    2586     6950     6952 1
    2587     7274     7276 1
    2588     9191     9193 1
    2589     8786     8788 1
    2590     5723     5725 1
    2591      536      537 1
    2592      749      750 1
    2593      612      611 1
    2594     9860     9861 1
    2595    11777    11778 1
    2596    10238    10239 1
    2597    11858    11859 1
    2598     7496     7498 1
    2599     4098     4099 1
    2600     2165     2166 1
    2601    10400    10401 1
    2602      656      658 1
    2603     2752     2753 1
    2604     3514     3515 1
    2605     2440     2441 1
    2606     4397     4399 1
    2607     9749     9751 1
    2608     9911     9913 1
    2609    11666    11668 1
    2610    10748    10750 1
    2611     5696     5697 1
    2612     7613     7614 1
    2613     4967     4968 1
    2614      463      464 1
    2615     7721     7722 1
    2616     7694     7695 1
    2617     5885     5886 1
    2618     7883     7884 1
    2619     7532     7533 1
    2620     9449     9450 1
    2621     7868     7870 1
    2622     8339     8341 1
    2623     5396     5398 1
    2624     6152     6154 1
    2625     5990     5992 1
    2626     5504     5506 1
    2627     8231     8233 1
    2628    10097    10098 1
    2629     4559     4561 1
    2630     2204     2205 1
    2631     2826     2827 1
    2632      202      203 1
    2633     1767     1768 1
    2634     2258     2259 1
    2635      653      654 1
    2636      544      545 1
    2637     2986     2987 1
    2638     3742     3743 1
    2639     3094     3095 1
    2640     9674     9676 1
    2641    10835    10837 1
    2642     1466     1467 1
    2643    10673    10675 1
    2644     1138     1139 1
    2645     3853     3854 1
    2646     2893     2894 1
    2647    11753    11755 1
    2648     6851     6852 1
    2649     1281     1280 1
    2650     3368     3369 1
    2651     3794     3795 1
    2652     8441     8443 1
    2653     8360     8362 1
    2654     5525     5527 1
    2655     6239     6240 1
    2656     8426     8427 1
    2657     5321     5322 1
    2658     7994     7995 1
    2659     2599     2600 1
    2660     2911     2912 1
    2661      157      158 1
    2662     3136     3137 1
    2663     4363     4364 1
    2664     4183     4184 1
    2665     4273     4274 1
    2666     4311     4312 1
    2667     8423     8425 1
    2668     8342     8344 1
    2669     5507     5509 1
    2670      956      957 1
    2671    11324    11325 1
    2672      411      410 1
    2673     7214     7216 1
    2674     8969     8971 1
    2675     7052     7054 1
    2676     6512     6514 1
    2677     5228     5229 1
    2678    10502    10504 1
    2679     7739     7740 1
    2680    10583    10585 1
    2681     6902     6903 1
    2682    10421    10423 1
    2683     7901     7902 1
    2684     5984     5985 1
    2685     2002     2003 1
    2686       52       53 1
    2687     2956     2959 1
    2688     8957     8959 1
    2689     7511     7512 1
    2690     4838     4839 1
    2691     7349     7350 1
    2692     9347     9348 1
    2693     8792     8793 1
    2694     4592     4594 1
    2695      278      281 1
    2696     1909     1910 1
    2697     2817     2818 1
    2698     3392     3393 1
    2699      652      653 1
    2700     1196     1197 1
    2701     4733     4735 1
    2702     9323     9325 1
    2703     9026     9028 1
    2704     7271     7273 1
    2705     9404     9406 1
    2706     5570     5572 1
    2707    10460    10462 1
    2708     7487     7489 1
    2709     4895     4897 1
    2710     9188     9190 1
    2711     3131     3130 1
    2712     4296     4297 1
    2713      999     1000 1
    2714     3074     3075 1
    2715     5540     5542 1
    2716     9374     9376 1
    2717      969      968 1
    2718     3790     3791 1
    2719     4334     4335 1
    2720     4207     4208 1
    2721      762      763 1
    2722     4244     4245 1
    2723    11516    11518 1
    2724    10598    10600 1
    2725    11354    11356 1
    2726     3091     3092 1
    2727    10436    10438 1
    2728     1946     1947 1
    2729     3405     3406 1
    2730     4021     4022 1
    2731     2164     2165 1
    2732     1755     1744 1
    2733     7355     7356 1
    2734     9353     9354 1
    2735     7517     7518 1
    2736     4844     4845 1
    2737     4757     4759 1
    2738     1011     1012 1
    2739     3079     3080 1
    2740     3915     3916 1
    2741     2217     2218 1
    2742     2940     2941 1
    2743     2575     2576 1
    2744    10721    10723 1
    2745    10532    10534 1
    2746    10370    10372 1
    2747     6983     6984 1
    2748     4571     4573 1
    2749     9980     9981 1
    2750    11573    11574 1
    2751     9818     9819 1
    2752    11249    11250 1
    2753    10709    10710 1
    2754    11441    11443 1
    2755     2360     2361 1
    2756     5663     5665 1
    2757     3769     3770 1
    2758     5744     5746 1
    2759     4415     4416 1
    2760     7661     7663 1
    2761     8660     8662 1
    2762     4535     4536 1
    2763     3951     3952 1
    2764      139      140 1
    2765     6929     6931 1
    2766     1058     1059 1
    2767     2570     2569 1
    2768     2771     2770 1
    2769     2876     2878 1
    2770     3031     3030 1
    2771     4127     4126 1
    2772     3108     3109 1
    2773     2700     2701 1
    2774     2277     2278 1
    2775    11621    11622 1
    2776      761      762 1
    2777     1084     1085 1
    2778     4364     4365 1
    2779     4274     4275 1
    2780     2783     2784 1
    2781     8930     8931 1
    2782     7850     7851 1
    2783     7391     7392 1
    2784     6878     6879 1
    2785     5096     5097 1
    2786      272      274 1
    2787     1885     1886 1
    2788     3950     3951 1
    2789     7649     7650 1
    2790     4322     4323 1
    2791     7319     7320 1
    2792     9236     9237 1
    2793     9074     9075 1
    2794     7400     7401 1
    2795     9479     9480 1
    2796     9155     9156 1
    2797     7238     7239 1
    2798     4520     4521 1
    2799     3947     3948 1
    2800     3244     3245 1
    2801     3123     3124 1
    2802     3771     3772 1
    2803    10289    10290 1
    2804    10451    10452 1
    2805     3075     3076 1
    2806     2763     2764 1
    2807     9689     9691 1
    2808     9878     9880 1
    2809    11957    11959 1
    2810    11606    11608 1
    2811     1876     1877 1
    2812     4538     4539 1
    2813     2381     2382 1
    2814     2492     2493 1
    2815    10604    10605 1
    2816    11522    11523 1
    2817    11360    11361 1
    2818     1745     1746 1
    2819    10442    10443 1
    2820     1103     1104 1
    2821     1433     1434 1
    2822     3916     3917 1
    2823     2299     2300 1
    2824     2941     2942 1
    2825     1544     1545 1
    2826      341      342 1
    2827     2368     2369 1
    2828     5285     5287 1
    2829     8723     8725 1
    2830     8642     8644 1
    2831     8804     8806 1
    2832      197      198 1
    2833     2362     2364 1
    2834     8480     8482 1
    2835     4424     4426 1
    2836     6644     6646 1
    2837      926      929 1
    2838    11777    11779 1
    2839     9860     9862 1
    2840    10238    10240 1
    2841    11858    11860 1
    2842    10400    10402 1
    2843     2601     2602 1
    2844     4062     4063 1
    2845     3357     3358 1
    2846     3931     3932 1
    2847     3198     3199 1
    2848     2766     2767 1
    2849     8870     8871 1
    2850     3740     3741 1
    2851      615      616 1
    2852     1377     1378 1
    2853      948      949 1
    2854     7634     7635 1
    2855     5717     5718 1
    2856     5798     5799 1
    2857     7553     7554 1
    2858     1686     1687 1
    2859     7016     7017 1
    2860     7097     7098 1
    2861     8690     8691 1
    2862     6854     6855 1
    2863     9095     9096 1
    2864     8852     8853 1
    2865     1708     1687 1
    2866    11447    11448 1
    2867    11906    11907 1
    2868     3883     3884 1
    2869     9827     9828 1
    2870     1125     1126 1
    2871    10070    10071 1
    2872    11366    11367 1
    2873    11849    11850 1
    2874    10688    10689 1
    2875     8522     8523 1
    2876     9326     9328 1
    2877     8327     8329 1
    2878     4898     4900 1
    2879     4736     4738 1
    2880     6734     6736 1
    2881     5435     5437 1
    2882     2241     2242 1
    2883     6572     6574 1
    2884     7400     7402 1
    2885     4394     4396 1
    2886     9431     9432 1
    2887     2250     2247 1
    2888     2404     2405 1
    2889     9548     9549 1
    2890    10628    10629 1
    2891      449      450 1
    2892     1210     1211 1
    2893     3364     3365 1
    2894     1322     1323 1
    2895     9710     9711 1
    2896      560      561 1
    2897    10790    10791 1
    2898    11627    11628 1
    2899     9578     9579 1
    2900      127      128 1
    2901     8150     8152 1
    2902     6395     6397 1
    2903     5477     5479 1
    2904     8474     8476 1
    2905     8636     8638 1
    2906     8717     8719 1
    2907     8798     8800 1
    2908     6638     6640 1
    2909     1046     1047 1
    2910     4487     4489 1
    2911     2582     2583 1
    2912     3868     3870 1
    2913     7592     7593 1
    2914     1133     1134 1
    2915    11591    11593 1
    2916      494      495 1
    2917      229      228 1
    2918     3209     3210 1
    2919      598      596 1
    2920     1323     1324 1
    2921     1542     1543 1
    2922      780      781 1
    2923     7529     7531 1
    2924      161      162 1
    2925      352      353 1
    2926     2714     2715 1
    2927     4664     4665 1
    2928     4496     4497 1
    2929     1682     1684 1
    2930    10181    10182 1
    2931    10343    10344 1
    2932    11261    11262 1
    2933      339      340 1
    2934      231      232 1
    2935       45       46 1
    2936     4136     4137 1
    2937     4169     4170 1
    2938     4259     4260 1
    2939     4349     4350 1
    2940     1863     1864 1
    2941     8348     8350 1
    2942     6107     6109 1
    2943     7943     7945 1
    2944     6026     6028 1
    2945     5270     5272 1
    2946     8429     8431 1
    2947     5945     5947 1
    2948     5432     5434 1
    2949     4119     4120 1
    2950     5189     5191 1
    2951     6596     6598 1
    2952     9893     9894 1
    2953    10610    10612 1
    2954     9530     9532 1
    2955    11609    11611 1
    2956     9881     9883 1
    2957    11432    11433 1
    2958    11243    11244 1
    2959     9692     9694 1
    2960     4490     4492 1
    2961    11960    11962 1
    2962     9164     9165 1
    2963     2118     2119 1
    2964      613      614 1
    2965     2470     2473 1
    2966     3259     3260 1
    2967     9467     9469 1
    2968     1780     1781 1
    2969       40       41 1
    2970       46       47 1
    2971     6851     6853 1
    2972     8783     8785 1
    2973     9320     9321 1
    2974     7727     7728 1
    2975     4730     4731 1
    2976     5972     5973 1
    2977     4409     4410 1
    2978     8321     8322 1
    2979     6728     6729 1
    2980     4892     4893 1
    2981     6566     6567 1
    2982     7382     7383 1
    2983    11756    11757 1
    2984     6239     6241 1
    2985     8426     8428 1
    2986     2075     2076 1
    2987     7994     7996 1
    2988     5321     5323 1
    2989     2022     2023 1
    2990    11456    11457 1
    2991     9566     9567 1
    2992    11807    11808 1
    2993    11645    11646 1
    2994     2814     2815 1
    2995     9728     9729 1
    2996      137      138 1
    2997      764      765 1
    2998      156      157 1
    2999     4391     4392 1
    3000     3938     3939 1
    3001     3727     3726 1
    3002      885      886 1
    3003     1888     1889 1
    3004       98       99 1
    3005     2181     2182 1
    3006     9224     9225 1
    3007     4160     4161 1
    3008    11462    11464 1
    3009     1094     1093 1
    3010     1731     1732 1
    3011     2198     2199 1
    3012     1879     1880 1
    3013       83       84 1
    3014     1619     1620 1
    3015     1388     1389 1
    3016     1187     1188 1
    3017     6863     6865 1
    3018     3871     3872 1
    3019      289      290 1
    3020     2108     2109 1
    3021      347      348 1
    3022     5534     5535 1
    3023     5642     5643 1
    3024     7640     7641 1
    3025     4778     4779 1
    3026     4940     4941 1
    3027     7451     7452 1
    3028      215      214 1
    3029     5048     5049 1
    3030     4697     4698 1
    3031     7559     7560 1
    3032     4173     4174 1
    3033     4059     4060 1
    3034     3449     3450 1
    3035      597      598 1
    3036     1245     1246 1
    3037     2301     2304 1
    3038     3324     3325 1
    3039     8414     8415 1
    3040     6527     6528 1
    3041     3077     3078 1
    3042     1853     1842 1
    3043     3839     3840 1
    3044     8864     8865 1
    3045     1769     1758 1
    3046      207      208 1
    3047       96       97 1
    3048     5768     5769 1
    3049     3784     3785 1
    3050     4063     4064 1
    3051     3034     3035 1
    3052     3235     3236 1
    3053     1843     1844 1
    3054     3968     3969 1
    3055     6182     6184 1
    3056     6344     6346 1
    3057     5345     5347 1
    3058     8018     8020 1
    3059     3712     3714 1
    3060     3604     3606 1
    3061     8180     8182 1
    3062     6263     6265 1
    3063     8261     8263 1
    3064     8099     8101 1
    3065     3333     3334 1
    3066     1571     1572 1
    3067     2140     2141 1
    3068     5529     5528 1
    3069      721      722 1
    3070     9956     9957 1
    3071    11468    11469 1
    3072    10118    10119 1
    3073     2221     2222 1
    3074     8930     8932 1
    3075     7850     7852 1
    3076     7391     7393 1
    3077     5096     5098 1
    3078     6878     6880 1
    3079      700      701 1
    3080     9485     9487 1
    3081    11270    11271 1
    3082     3973     3974 1
    3083     3200     3202 1
    3084     7319     7321 1
    3085     9074     9076 1
    3086     2050     2051 1
    3087     9236     9238 1
    3088     2809     2808 1
    3089     4520     4522 1
    3090     5966     5967 1
    3091     9155     9157 1
    3092     9479     9481 1
    3093     1466     1469 1
    3094     4176     4177 1
    3095     4499     4500 1
    3096     3744     3745 1
    3097     1083     1084 1
    3098     3999     4000 1
    3099     2528     2529 1
    3100     8249     8250 1
    3101     6170     6171 1
    3102     5414     5415 1
    3103     1936     1925 1
    3104     4613     4614 1
    3105     6008     6009 1
    3106     1354     1355 1
    3107      294      295 1
    3108     2975     2976 1
    3109     2759     2760 1
    3110     9338     9339 1
    3111     6503     6504 1
    3112     2039     2040 1
    3113    10814    10815 1
    3114     1877     1878 1
    3115    10895    10896 1
    3116     2084     2085 1
    3117     1994     1995 1
    3118     2003     2004 1
    3119    10988    10989 1
    3120      143      144 1
    3121    11312    11313 1
    3122     4210     4211 1
    3123      135      136 1
    3124      978      979 1
    3125    11420    11421 1
    3126     2524     2525 1
    3127     9923     9925 1
    3128     9761     9763 1
    3129    11678    11680 1
    3130    10760    10762 1
    3131     7058     7060 1
    3132     8975     8977 1
    3133     6545     6547 1
    3134     6383     6385 1
    3135     8624     8626 1
    3136     8462     8464 1
    3137     7220     7222 1
    3138      851      852 1
    3139     1724     1725 1
    3140     5957     5958 1
    3141     1233     1234 1
    3142      267      268 1
    3143     4087     4076 1
    3144      771      773 1
    3145     8816     8817 1
    3146    10559    10561 1
    3147    10640    10642 1
    3148     3233     3235 1
    3149     3125     3127 1
    3150    10316    10318 1
    3151    10478    10480 1
    3152     4023     4024 1
    3153     3441     3442 1
    3154      889      890 1
    3155     1892     1893 1
    3156      346      347 1
    3157      568      569 1
    3158     1219     1220 1
    3159     1651     1652 1
    3160      230      229 1
    3161     9821     9822 1
    3162     5717     5719 1
    3163     7634     7636 1
    3164     3393     3394 1
    3165     7553     7555 1
    3166     5798     5800 1
    3167     1839     1828 1
    3168     3222     3223 1
    3169     2929     2930 1
    3170     7097     7099 1
    3171     7016     7018 1
    3172     8690     8692 1
    3173     9095     9097 1
    3174     6854     6856 1
    3175     8852     8854 1
    3176     3494     3495 1
    3177     4099     4100 1
    3178     3495     3496 1
    3179     4223     4224 1
    3180     4414     4412 1
    3181     4015     4016 1
    3182     3381     3384 1
    3183     2922     2923 1
    3184     9785     9786 1
    3185     3421     3422 1
    3186     3757     3758 1
    3187     9890     9892 1
    3188    11888    11890 1
    3189     9647     9649 1
    3190     2884     2885 1
    3191    11969    11971 1
    3192    11402    11404 1
    3193    11726    11728 1
    3194     6743     6744 1
    3195     5987     5988 1
    3196     5447     5448 1
    3197     1533     1534 1
    3198     7985     7986 1
    3199     2534     2535 1
    3200      115      114 1
    3201     1656     1657 1
    3202     3610     3611 1
    3203     4601     4602 1
    3204     8954     8956 1
    3205     7226     7228 1
    3206     8981     8983 1
    3207     4727     4728 1
    3208     9317     9318 1
    3209     1248     1249 1
    3210     3010     3011 1
    3211     9398     9399 1
    3212     7064     7066 1
    3213     7481     7482 1
    3214     5564     5565 1
    3215     4889     4890 1
    3216      855      856 1
    3217     1392     1393 1
    3218      678      679 1
    3219     4172     4173 1
    3220     4153     4154 1
    3221     2232     2233 1
    3222     2322     2323 1
    3223     5081     5083 1
    3224     8078     8080 1
    3225     8915     8917 1
    3226     5243     5245 1
    3227     5891     5893 1
    3228     5837     5839 1
    3229     7916     7918 1
    3230    10838    10839 1
    3231    11258    11260 1
    3232    10568    10569 1
    3233    10676    10677 1
    3234    10934    10936 1
    3235     2804     2805 1
    3236     3353     3354 1
    3237    10325    10326 1
    3238    10649    10650 1
    3239     3137     3138 1
    3240     2915     2916 1
    3241     2273     2274 1
    3242     4871     4873 1
    3243     3464     3465 1
    3244     3148     3149 1
    3245     6173     6175 1
    3246     1971     1972 1
    3247     3712     3715 1
    3248     3604     3607 1
    3249     2581     2582 1
    3250     1836     1837 1
    3251     1379     1378 1
    3252     3499     3500 1
    3253     3960     3949 1
    3254     8267     8268 1
    3255     6350     6351 1
    3256     8024     8025 1
    3257     5351     5352 1
    3258     8186     8187 1
    3259     6188     6189 1
    3260     6269     6270 1
    3261     8105     8106 1
    3262     8465     8466 1
    3263     4319     4320 1
    3264     4664     4666 1
    3265     4496     4498 1
    3266     2668     2669 1
    3267    10997    10998 1
    3268    11321    11322 1
    3269    11078    11079 1
    3270     3243     3244 1
    3271      980      981 1
    3272     4307     4296 1
    3273     9254     9255 1
    3274     7418     7419 1
    3275     5501     5502 1
    3276     5984     5986 1
    3277     3407     3408 1
    3278      803      804 1
    3279    11786    11787 1
    3280     9869     9870 1
    3281      899      900 1
    3282      440      443 1
    3283      436      435 1
    3284     1091     1092 1
    3285     3152     3153 1
    3286     1192     1191 1
    3287     2059     2060 1
    3288     3414     3393 1
    3289     1969     1970 1
    3290     7883     7885 1
    3291    10151    10153 1
    3292       75       76 1
    3293      546      547 1
    3294     8513     8514 1
    3295     6221     6223 1
    3296     5060     5061 1
    3297     5816     5817 1
    3298     7247     7248 1
    3299     5654     5655 1
    3300     1579     1580 1
    3301     7571     7572 1
    3302     5492     5493 1
    3303     8489     8490 1
    3304     7409     7410 1
    3305     2647     2648 1
    3306     2536     2537 1
    3307     1264     1265 1
    3308    11585    11587 1
    3309     3487     3488 1
    3310     2725     2726 1
    3311    11465    11466 1
    3312     2719     2720 1
    3313     1895     1884 1
    3314    10979    10980 1
    3315    11141    11142 1
    3316    10955    10957 1
    3317    11225    11227 1
    3318    10712    10714 1
    3319    10982    10984 1
    3320    11063    11065 1
    3321    11144    11146 1
    3322     3013     3014 1
    3323     6953     6955 1
    3324    10514    10516 1
    3325    10595    10597 1
    3326    10433    10435 1
    3327     1268     1269 1
    3328     2249     2250 1
    3329     1992     1991 1
    3330    12032    12033 1
    3331     2994     2995 1
    3332     5549     5551 1
    3333     8039     8040 1
    3334     6284     6285 1
    3335      243      244 1
    3336      368      369 1
    3337     1349     1350 1
    3338     5624     5625 1
    3339     3044     3043 1
    3340     1192     1190 1
    3341      436      434 1
    3342     4289     4290 1
    3343     4315     4316 1
    3344     4225     4226 1
    3345    10499    10501 1
    3346    11201    11203 1
    3347    10580    10582 1
    3348    10958    10960 1
    3349    11039    11041 1
    3350    10418    10420 1
    3351    11120    11122 1
    3352     9040     9038 1
    3353     4682     4683 1
    3354     4442     4443 1
    3355     2845     2846 1
    3356     3023     3024 1
    3357     2486     2487 1
    3358    11738    11739 1
    3359    11900    11901 1
    3360    11981    11982 1
    3361     2693     2695 1
    3362     9902     9903 1
    3363     1001     1002 1
    3364      111      112 1
    3365      846      848 1
    3366      414      416 1
    3367     2905     2906 1
    3368     6527     6529 1
    3369     2200     2203 1
    3370     1490     1491 1
    3371      617      618 1
    3372     1691     1692 1
    3373     3435     3438 1
    3374      106      107 1
    3375     2116     2117 1
    3376      494      497 1
    3377     2100     2101 1
    3378     2010     2011 1
    3379      701      702 1
    3380     2554     2555 1
    3381     3947     3936 1
    3382     3097     3098 1
    3383     2341     2342 1
    3384     3433     3434 1
    3385     3637     3638 1
    3386      945      946 1
    3387     1695     1696 1
    3388     8363     8364 1
    3389     5609     5610 1
    3390      567      568 1
    3391     7718     7719 1
    3392     5693     5694 1
    3393     7610     7611 1
    3394     4964     4965 1
    3395     5882     5883 1
    3396      177      178 1
    3397     7691     7692 1
    3398     1492     1493 1
    3399     7880     7881 1
    3400     9446     9447 1
    3401     5939     5940 1
    3402     3812     3811 1
    3403     7874     7876 1
    3404     8435     8437 1
    3405     8354     8356 1
    3406     3971     3970 1
    3407     5519     5521 1
    3408      539      540 1
    3409     1064     1065 1
    3410     2498     2500 1
    3411      752      753 1
    3412      671      672 1
    3413      440      442 1
    3414    10184    10185 1
    3415    10265    10266 1
    3416    10346    10347 1
    3417    12020    12021 1
    3418     2863     2864 1
    3419     3085     3086 1
    3420     2406     2407 1
    3421     2295     2296 1
    3422     3736     3737 1
    3423     9587     9589 1
    3424    11180    11182 1
    3425     1574     1576 1
    3426     2531     2532 1
    3427      239      240 1
    3428     6101     6102 1
    3429     5264     5265 1
    3430     7937     7938 1
    3431     5426     5427 1
    3432     4547     4549 1
    3433     5183     5184 1
    3434     8249     8251 1
    3435     6170     6172 1
    3436     5414     5416 1
    3437     6020     6021 1
    3438     4613     4615 1
    3439     1648     1649 1
    3440     6008     6010 1
    3441     4601     4603 1
    3442     2206     2207 1
    3443     6155     6157 1
    3444     9338     9340 1
    3445     6503     6505 1
    3446     3901     3902 1
    3447      166      163 1
    3448     1677     1678 1
    3449      273      274 1
    3450     3702     3703 1
    3451     2409     2412 1
    3452     7886     7888 1
    3453     1130     1131 1
    3454      150      151 1
    3455    10268    10270 1
    3456    12023    12025 1
    3457      490      491 1
    3458     6818     6820 1
    3459     2195     2196 1
    3460     3212     3213 1
    3461     2450     2451 1
    3462      786      787 1
    3463     5963     5965 1
    3464     3299     3300 1
    3465     2426     2427 1
    3466      324      323 1
    3467      468      469 1
    3468      500      501 1
    3469      716      717 1
    3470     1763     1764 1
    3471      875      876 1
    3472     2314     2315 1
    3473     3902     3903 1
    3474     1199     1200 1
    3475     3584     3585 1
    3476      252      254 1
    3477     4388     4389 1
    3478     4248     4249 1
    3479    11153    11154 1
    3480    11477    11478 1
    3481    11234    11235 1
    3482     9731     9732 1
    3483       48       49 1
    3484     4342     4343 1
    3485     2048     2049 1
    3486     2085     2086 1
    3487     1860     1861 1
    3488     1031     1032 1
    3489     1995     1996 1
    3490     8630     8631 1
    3491      945      944 1
    3492     2245     2246 1
    3493     8537     8539 1
    3494     6782     6784 1
    3495     9212     9214 1
    3496     7295     7297 1
    3497     6620     6622 1
    3498     9332     9333 1
    3499    11702    11703 1
    3500     8333     8334 1
    3501     5255     5256 1
    3502     7928     7929 1
    3503     9665     9667 1
    3504     4742     4743 1
    3505     8927     8928 1
    3506    11663    11665 1
    3507     9908     9910 1
    3508     4418     4420 1
    3509     5063     5064 1
    3510       49       50 1
    3511     6743     6745 1
    3512     5987     5989 1
    3513     5447     5449 1
    3514     7985     7987 1
    3515     4039     4040 1
    3516     7619     7620 1
    3517     5702     5703 1
    3518     7538     7539 1
    3519     7700     7701 1
    3520     9455     9456 1
    3521     6458     6459 1
    3522     5303     5304 1
    3523     8294     8295 1
    3524     5783     5784 1
    3525     5459     5460 1
    3526     3995     3994 1
    3527     3539     3538 1
    3528     9398     9400 1
    3529     4727     4729 1
    3530     5564     5566 1
    3531     7481     7483 1
    3532     3010     3012 1
    3533     5126     5127 1
    3534     4889     4891 1
    3535     9317     9319 1
    3536     2997     2998 1
    3537     2998     2999 1
    3538     5252     5253 1
    3539     8087     8088 1
    3540     6440     6441 1
    3541     5846     5847 1
    3542     5090     5091 1
    3543     6602     6603 1
    3544     8519     8520 1
    3545     7925     7926 1
    3546     3566     3565 1
    3547     1294     1295 1
    3548      193      192 1
    3549     1650     1651 1
    3550     1638     1639 1
    3551     1060     1061 1
    3552      260      259 1
    3553    11921    11922 1
    3554     9842     9843 1
    3555    10085    10086 1
    3556     3050     3051 1
    3557     3161     3162 1
    3558      585      584 1
    3559     3555     3556 1
    3560     6032     6034 1
    3561     3253     3252 1
    3562     2871     2872 1
    3563     3627     3628 1
    3564     1965     1954 1
    3565     8759     8760 1
    3566     8597     8598 1
    3567     6923     6924 1
    3568     8678     8679 1
    3569     6761     6762 1
    3570     6842     6843 1
    3571     6680     6681 1
    3572     8699     8701 1
    3573     2839     2840 1
    3574     6947     6948 1
    3575      650      652 1
    3576     1861     1862 1
    3577      974      976 1
    3578      242      243 1
    3579     9044     9045 1
    3580     6425     6426 1
    3581     7127     7128 1
    3582     6803     6804 1
    3583     8504     8505 1
    3584     6587     6588 1
    3585     8882     8883 1
    3586     9254     9256 1
    3587     7418     7420 1
    3588     5501     5503 1
    3589     1114     1115 1
    3590     9773     9775 1
    3591     2743     2744 1
    3592     2955     2956 1
    3593     3017     3018 1
    3594     1487     1488 1
    3595     2465     2466 1
    3596     2993     2992 1
    3597     4195     4196 1
    3598      867      868 1
    3599     2338     2336 1
    3600     4336     4337 1
    3601     5174     5175 1
    3602     3743     3744 1
    3603     3854     3855 1
    3604      920      922 1
    3605     3998     3999 1
    3606      380      382 1
    3607      590      591 1
    3608      479      480 1
    3609       17       18 1
    3610      203      204 1
    3611       95       96 1
    3612     2550     2529 1
    3613      183      184 1
    3614     1750     1751 1
    3615    11531    11532 1
    3616    11882    11883 1
    3617      493      494 1
    3618    11720    11721 1
    3619    11693    11694 1
    3620     9614     9615 1
    3621     9776     9777 1
    3622     3577     3576 1
    3623     9071     9073 1
    3624     7316     7318 1
    3625     9233     9235 1
    3626     3300     3301 1
    3627    10526    10528 1
    3628    11930    11932 1
    3629     3087     3088 1
    3630     1594     1595 1
    3631    10013    10015 1
    3632     1669     1670 1
    3633    10364    10366 1
    3634    11363    11365 1
    3635    11093    11095 1
    3636     4107     4108 1
    3637     3937     3938 1
    3638     5720     5721 1
    3639     2899     2900 1
    3640      619      620 1
    3641     1369     1370 1
    3642      455      456 1
    3643     2844     2845 1
    3644     8039     8041 1
    3645     6284     6286 1
    3646     3748     3749 1
    3647     9383     9384 1
    3648     3681     3682 1
    3649     3144     3145 1
    3650    10184    10186 1
    3651    10265    10267 1
    3652    10346    10348 1
    3653    12020    12022 1
    3654     3249     3250 1
    3655     3786     3787 1
    3656     5603     5604 1
    3657     4766     4767 1
    3658     7196     7197 1
    3659     9437     9438 1
    3660     9275     9276 1
    3661     7439     7440 1
    3662     2444     2445 1
    3663     9140     9141 1
    3664     7601     7602 1
    3665     4184     4185 1
    3666     4268     4269 1
    3667     1019     1020 1
    3668     1226     1227 1
    3669     2651     2652 1
    3670      845      846 1
    3671     3518     3519 1
    3672     3192     3191 1
    3673     2859     2858 1
    3674      374      373 1
    3675    10220    10221 1
    3676    11948    11949 1
    3677    10031    10032 1
    3678    10058    10059 1
    3679     2723     2724 1
    3680     2936     2937 1
    3681     3809     3810 1
    3682     3485     3486 1
    3683      186      187 1
    3684     7448     7449 1
    3685     3349     3350 1
    3686      129      130 1
    3687     1128     1129 1
    3688    10823    10824 1
    3689    10814    10816 1
    3690    10895    10897 1
    3691     9662     9663 1
    3692    10256    10257 1
    3693     3307     3308 1
    3694    10661    10662 1
    3695    11741    11742 1
    3696    12011    12012 1
    3697     2175     2176 1
    3698     1015     1016 1
    3699      592      593 1
    3700     2152     2153 1
    3701    12047    12048 1
    3702    11210    11211 1
    3703    11048    11049 1
    3704    10130    10131 1
    3705     3409     3410 1
    3706     3721     3722 1
    3707     2758     2759 1
    3708     3520     3521 1
    3709     2223     2224 1
    3710     1635     1637 1
    3711      301      302 1
    3712    10208    10210 1
    3713    10046    10048 1
    3714     2261     2263 1
    3715     7073     7074 1
    3716     7991     7992 1
    3717    10223    10224 1
    3718      787      788 1
    3719    10034    10035 1
    3720    11951    11952 1
    3721     5318     5319 1
    3722    11303    11304 1
    3723    10061    10062 1
    3724     6236     6237 1
    3725     1207     1208 1
    3726     7838     7839 1
    3727     3121     3122 1
    3728     5609     5611 1
    3729     8363     8365 1
    3730     2497     2498 1
    3731     5693     5695 1
    3732     7610     7612 1
    3733     4964     4966 1
    3734     5882     5884 1
    3735     7691     7693 1
    3736     5774     5776 1
    3737     7718     7720 1
    3738     7880     7882 1
    3739     9446     9448 1
    3740     5126     5128 1
    3741     2522     2523 1
    3742     6812     6813 1
    3743     2496     2475 1
    3744     2082     2081 1
    3745     1006      985 1
    3746     2016     2017 1
    3747     5780     5782 1
    3748     1953     1954 1
    3749       32       31 1
    3750       95       94 1
    3751      977      978 1
    3752     3418     3419 1
    3753     3646     3647 1
    3754     2455     2456 1
    3755    11537    11539 1
    3756    10295    10297 1
    3757     2566     2567 1
    3758    11699    11701 1
    3759     2662     2663 1
    3760     9620     9622 1
    3761     9782     9784 1
    3762    10457    10459 1
    3763     3719     3721 1
    3764     9308     9309 1
    3765     1568     1570 1
    3766     7175     7176 1
    3767     1241     1240 1
    3768     4123     4124 1
    3769     5462     5463 1
    3770     4673     4674 1
    3771     2530     2531 1
    3772     2282     2283 1
    3773     3056     3055 1
    3774     8534     8535 1
    3775     6887     6888 1
    3776     6779     6780 1
    3777     2794     2795 1
    3778     2902     2903 1
    3779     6968     6969 1
    3780     6617     6618 1
    3781      669      670 1
    3782      309      310 1
    3783     3460     3461 1
    3784     3408     3409 1
    3785     6164     6165 1
    3786     5408     5409 1
    3787     6515     6516 1
    3788     6002     6003 1
    3789     8243     8244 1
    3790     8419     8417 1
    3791     4747     4745 1
    3792     1607     1608 1
    3793     1505     1506 1
    3794    11351    11352 1
    3795     8942     8944 1
    3796     6701     6703 1
    3797     8780     8782 1
    3798     6944     6946 1
    3799     6632     6633 1
    3800     6794     6795 1
    3801     7010     7011 1
    3802     7172     7173 1
    3803     8549     8550 1
    3804     3356     3357 1
    3805     3134     3135 1
    3806     2597     2598 1
    3807     3668     3669 1
    3808     1297     1300 1
    3809     2797     2798 1
    3810      609      610 1
    3811      655      656 1
    3812     4036     4037 1
    3813     7730     7732 1
    3814     7322     7323 1
    3815     9239     9240 1
    3816     9077     9078 1
    3817     8981     8982 1
    3818     5207     5208 1
    3819     1120     1121 1
    3820     3099     3100 1
    3821     9593     9594 1
    3822    11186    11187 1
    3823    11024    11025 1
    3824    10862    10863 1
    3825     9944     9945 1
    3826    10106    10107 1
    3827     3648     3649 1
    3828      872      873 1
    3829     3522     3523 1
    3830     4667     4669 1
    3831     2264     2263 1
    3832     1186     1187 1
    3833     1520     1523 1
    3834     6215     6216 1
    3835     2065     2066 1
    3836     7694     7696 1
    3837      520      499 1
    3838     4859     4861 1
    3839     1962     1963 1
    3840    11786    11788 1
    3841     9869     9871 1
    3842     4850     4851 1
    3843     9296     9298 1
    3844     1286     1287 1
    3845     1073     1074 1
    3846     8138     8139 1
    3847     4709     4710 1
    3848     6140     6141 1
    3849     5384     5385 1
    3850     8057     8058 1
    3851     6302     6303 1
    3852     4952     4953 1
    3853     7463     7464 1
    3854     5546     5547 1
    3855     3403     3404 1
    3856     3625     3626 1
    3857     1587     1588 1
    3858     1560     1561 1
    3859     1810     1799 1
    3860      798      799 1
    3861     3258     3259 1
    3862     2641     2642 1
    3863     1203     1205 1
    3864     3981     3982 1
    3865     2946     2947 1
    3866     1054     1055 1
    3867      505      506 1
    3868    10262    10264 1
    3869    12017    12019 1
    3870     5090     5092 1
    3871     6440     6442 1
    3872     5252     5254 1
    3873     8087     8089 1
    3874    11549    11551 1
    3875     9632     9634 1
    3876    10010    10012 1
    3877     5846     5848 1
    3878    11711    11713 1
    3879     9794     9796 1
    3880    10172    10174 1
    3881    10946    10948 1
    3882    11891    11893 1
    3883     9596     9598 1
    3884    11162    11164 1
    3885    11189    11191 1
    3886    11486    11488 1
    3887    11729    11731 1
    3888    10352    10353 1
    3889    10784    10785 1
    3890    12032    12034 1
    3891     3058     3060 1
    3892      554      555 1
    3893     4712     4714 1
    3894     2153     2154 1
    3895     2122     2123 1
    3896     6560     6561 1
    3897     9344     9345 1
    3898     6509     6510 1
    3899     4568     4569 1
    3900     3775     3776 1
    3901     2488     2489 1
    3902     1957     1958 1
    3903      710      712 1
    3904     3939     3940 1
    3905     9986     9988 1
    3906     3496     3498 1
    3907    11984    11986 1
    3908    11822    11824 1
    3909    10148    10150 1
    3910     2071     2072 1
    3911    12026    12028 1
    3912     9875     9876 1
    3913    11792    11793 1
    3914     4014     4015 1
    3915    11195    11197 1
    3916     9602     9604 1
    3917    11897    11899 1
    3918    11735    11737 1
    3919      398      399 1
    3920     6143     6144 1
    3921     3867     3870 1
    3922     6326     6328 1
    3923    11048    11050 1
    3924    12047    12049 1
    3925    11210    11212 1
    3926    10130    10132 1
    3927     2464     2466 1
    3928     1193     1194 1
    3929     3824     3825 1
    3930     3289     3290 1
    3931     1300     1301 1
    3932     2182     2183 1
    3933     1878     1879 1
    3934     2887     2888 1
    3935     6764     6765 1
    3936     8681     8682 1
    3937     6494     6495 1
    3938     2193     2196 1
    3939     6926     6927 1
    3940     2476     2477 1
    3941     8573     8574 1
    3942     7541     7543 1
    3943     6332     6333 1
    3944     4565     4566 1
    3945      399      400 1
    3946     1164     1165 1
    3947     1701     1702 1
    3948     5747     5748 1
    3949     7664     7665 1
    3950     6746     6747 1
    3951     4991     4992 1
    3952     8663     8664 1
    3953     5909     5910 1
    3954     6908     6909 1
    3955     1464     1465 1
    3956    12041    12042 1
    3957      528      529 1
    3958      741      742 1
    3959    11204    11205 1
    3960     1293     1294 1
    3961    10124    10125 1
    3962     1077     1078 1
    3963    11042    11043 1
    3964     3820     3821 1
    3965    11579    11580 1
    3966     8705     8707 1
    3967     7112     7114 1
    3968     1234     1235 1
    3969     9218     9220 1
    3970     7301     7303 1
    3971     8867     8869 1
    3972       71       72 1
    3973     3362     3364 1
    3974     1520     1522 1
    3975    11399    11400 1
    3976     9644     9645 1
    3977    10859    10860 1
    3978     4508     4509 1
    3979     4580     4581 1
    3980    11021    11022 1
    3981      474      475 1
    3982     2431     2432 1
    3983      588      589 1
    3984     2542     2543 1
    3985     2968     2969 1
    3986      363      364 1
    3987     3657     3658 1
    3988     3913     3914 1
    3989     3379     3380 1
    3990     2215     2216 1
    3991     4499     4501 1
    3992      991      992 1
    3993    11087    11088 1
    3994     7439     7441 1
    3995     4766     4768 1
    3996     7196     7198 1
    3997     9275     9277 1
    3998     5603     5605 1
    3999     9437     9439 1
    4000     7601     7603 1
    4001     4673     4675 1
    4002     2025     2014 1
    4003     1132     1133 1
    4004     5657     5659 1
    4005     2954     2955 1
    4006     2237     2238 1
    4007     2523     2524 1
    4008     2477     2478 1
    4009       19       20 1
    4010     1764     1765 1
    4011     2844     2843 1
    4012     1623     1624 1
    4013     2589     2590 1
    4014      919      922 1
    4015     2925     2926 1
    4016     2913     2914 1
    4017     2376     2377 1
    4018     9104     9105 1
    4019    10241    10243 1
    4020    10403    10405 1
    4021       36       38 1
    4022     3428     3429 1
    4023     8633     8634 1
    4024     8471     8472 1
    4025     2540     2541 1
    4026     1008     1009 1
    4027     1256     1257 1
    4028      360      361 1
    4029     1886     1887 1
    4030     2228     2230 1
    4031     5954     5956 1
    4032     8495     8497 1
    4033     8819     8821 1
    4034     8306     8308 1
    4035     5822     5824 1
    4036     5660     5662 1
    4037     8657     8659 1
    4038     6227     6229 1
    4039     7577     7579 1
    4040     5066     5068 1
    4041     5471     5473 1
    4042     1230     1229 1
    4043    11558    11559 1
    4044     9965     9966 1
    4045      447      448 1
    4046     2131     2132 1
    4047    11369    11370 1
    4048     9803     9804 1
    4049     3966     3967 1
    4050     4253     4254 1
    4051     3618     3619 1
    4052     3399     3400 1
    4053     3980     3981 1
    4054     4092     4093 1
    4055     8564     8566 1
    4056     2146     2147 1
    4057     6767     6768 1
    4058     9197     9198 1
    4059     9035     9036 1
    4060     8684     8685 1
    4061     6848     6849 1
    4062     8603     8604 1
    4063     6686     6687 1
    4064    11177    11179 1
    4065     9584     9586 1
    4066     8765     8766 1
    4067    11069    11071 1
    4068     3802     3803 1
    4069     8252     8254 1
    4070     3496     3499 1
    4071      630      632 1
    4072     9308     9310 1
    4073     7175     7177 1
    4074     1519     1520 1
    4075     2735     2736 1
    4076      302      303 1
    4077     3308     3310 1
    4078     8534     8536 1
    4079     6887     6889 1
    4080     6779     6781 1
    4081     2794     2796 1
    4082     2902     2904 1
    4083      996      995 1
    4084     6968     6970 1
    4085     6569     6571 1
    4086     6617     6619 1
    4087     4451     4452 1
    4088     3858     3859 1
    4089    10079    10080 1
    4090     2265     2266 1
    4091     3894     3895 1
    4092     2484     2485 1
    4093     1515     1516 1
    4094    11915    11916 1
    4095     2784     2785 1
    4096     2454     2455 1
    4097     3608     3609 1
    4098     9836     9837 1
    4099     1516     1517 1
    4100      548      549 1
    4101     6164     6166 1
    4102     5408     5410 1
    4103      224      225 1
    4104     6710     6711 1
    4105     8951     8952 1
    4106     9032     9033 1
    4107     3200     3201 1
    4108     2199     2200 1
    4109     4031     4032 1
    4110     7277     7278 1
    4111     3448     3449 1
    4112     4003     4004 1
    4113     8789     8790 1
    4114     2869     2868 1
    4115     2639     2641 1
    4116     1673     1674 1
    4117    10193    10194 1
    4118     2150     2151 1
    4119    11273    11274 1
    4120    10355    10356 1
    4121     8855     8856 1
    4122     3590     3589 1
    4123     2815     2816 1
    4124    11921    11923 1
    4125     9842     9844 1
    4126    10085    10087 1
    4127     4232     4221 1
    4128     2820     2799 1
    4129     1746     1747 1
    4130     4979     4980 1
    4131     7976     7977 1
    4132     5897     5898 1
    4133     5141     5142 1
    4134     6977     6978 1
    4135     1540     1539 1
    4136      313      312 1
    4137     1990     1991 1
    4138     8990     8991 1
    4139     7829     7830 1
    4140     8828     8829 1
    4141     5156     5157 1
    4142      306      307 1
    4143     6074     6075 1
    4144     1494     1495 1
    4145    10226    10228 1
    4146    10307    10309 1
    4147    10064    10066 1
    4148    10739    10741 1
    4149    10469    10471 1
    4150     8189     8190 1
    4151     4559     4560 1
    4152     9839     9841 1
    4153    10190    10192 1
    4154    10271    10273 1
    4155     3279     3280 1
    4156     2415     2416 1
    4157    11918    11920 1
    4158    10082    10084 1
    4159    10352    10354 1
    4160     1697     1698 1
    4161     2369     2370 1
    4162     5042     5043 1
    4163     8984     8985 1
    4164     7094     7095 1
    4165     1425     1426 1
    4166     2040     2041 1
    4167      365      366 1
    4168      902      903 1
    4169      235      236 1
    4170     9377     9378 1
    4171     2621     2620 1
    4172     7373     7374 1
    4173     5834     5835 1
    4174     5240     5241 1
    4175     5078     5079 1
    4176     8075     8076 1
    4177      500      499 1
    4178     4700     4701 1
    4179     5618     5619 1
    4180     3118     3119 1
    4181     7913     7914 1
    4182    11297    11298 1
    4183     4322     4311 1
    4184     2328     2329 1
    4185    10715    10717 1
    4186     6533     6535 1
    4187     3716     3715 1
    4188     7799     7800 1
    4189     2830     2831 1
    4190     3703     3704 1
    4191     2264     2265 1
    4192     3893     3894 1
    4193      937      938 1
    4194     9659     9660 1
    4195     9848     9849 1
    4196     2254     2257 1
    4197    11927    11928 1
    4198     1162     1163 1
    4199     2489     2490 1
    4200      829      830 1
    4201     2503     2504 1
    4202    10091    10092 1
    4203    11414    11415 1
    4204      177      179 1
    4205     5306     5307 1
    4206     3967     3968 1
    4207      574      553 1
    4208     9344     9346 1
    4209     6509     6511 1
    4210     4568     4570 1
    4211     1769     1770 1
    4212    11399    11401 1
    4213    10859    10861 1
    4214     9644     9646 1
    4215     4508     4510 1
    4216     4580     4582 1
    4217    11021    11023 1
    4218     3570     3571 1
    4219     5135     5136 1
    4220     1121     1122 1
    4221     5711     5712 1
    4222     7628     7629 1
    4223     5792     5793 1
    4224     4874     4875 1
    4225     9464     9465 1
    4226     7709     7710 1
    4227     7547     7548 1
    4228     1720     1721 1
    4229      634      635 1
    4230     1498     1499 1
    4231      322      323 1
    4232     1362     1363 1
    4233     5828     5829 1
    4234     7367     7368 1
    4235     5234     5235 1
    4236     8069     8070 1
    4237     4694     4695 1
    4238     5072     5073 1
    4239     5612     5613 1
    4240     7907     7908 1
    4241    11003    11004 1
    4242    11327    11328 1
    4243     1223     1224 1
    4244    11084    11085 1
    4245     2939     2940 1
    4246     3479     3480 1
    4247     2717     2718 1
    4248     3479     3478 1
    4249      468      470 1
    4250     4328     4329 1
    4251     4238     4239 1
    4252     4270     4271 1
    4253    10067    10068 1
    4254     2024     2025 1
    4255     9635     9636 1
    4256    11390    11391 1
    4257    10220    10222 1
    4258    11948    11950 1
    4259    11903    11904 1
    4260    10031    10033 1
    4261    10058    10060 1
    4262     9824     9825 1
    4263     9353     9355 1
    4264     4844     4846 1
    4265     7355     7357 1
    4266     3942     3943 1
    4267     7517     7519 1
    4268        3        4 1
    4269     3578     3580 1
    4270     2390     2392 1
    4271     1511     1512 1
    4272     2230     2231 1
    4273     2239     2240 1
    4274     1020     1021 1
    4275     1671     1672 1
    4276     4081     4082 1
    4277      909      910 1
    4278     2251     2252 1
    4279     1095     1097 1
    4280     3331     3332 1
    4281     3688     3689 1
    4282     3765     3766 1
    4283     3719     3720 1
    4284     3873     3874 1
    4285     3827     3828 1
    4286     8681     8683 1
    4287     6764     6766 1
    4288     6494     6496 1
    4289     8573     8575 1
    4290     6332     6334 1
    4291     4565     4567 1
    4292     6926     6928 1
    4293     8411     8413 1
    4294     4502     4503 1
    4295     8198     8200 1
    4296     3253     3254 1
    4297     8663     8665 1
    4298     5747     5749 1
    4299     7664     7666 1
    4300     6746     6748 1
    4301     3361     3362 1
    4302     4991     4993 1
    4303     5909     5911 1
    4304     6908     6910 1
    4305     3701     3700 1
    4306      489      490 1
    4307     2739     2740 1
    4308     3341     3342 1
    4309     3900     3879 1
    4310     2625     2628 1
    4311     2880     2881 1
    4312     8090     8091 1
    4313     2446     2447 1
    4314      598      599 1
    4315     2747     2749 1
    4316     3398     3399 1
    4317     1548     1549 1
    4318     4129     4118 1
    4319      210      211 1
    4320     7361     7363 1
    4321      844      823 1
    4322     7523     7525 1
    4323     7751     7752 1
    4324     4688     4690 1
    4325     3766     3767 1
    4326     6671     6672 1
    4327     5672     5673 1
    4328     8588     8589 1
    4329     9359     9361 1
    4330     8750     8751 1
    4331     6833     6834 1
    4332     2377     2378 1
    4333     3670     3671 1
    4334      151      152 1
    4335     3451     3452 1
    4336     3250     3251 1
    4337     3139     3140 1
    4338     3463     3464 1
    4339     1339     1340 1
    4340     5597     5598 1
    4341     4760     4761 1
    4342     7433     7434 1
    4343     7406     7407 1
    4344     7325     7326 1
    4345     4171     4172 1
    4346     9242     9243 1
    4347     9269     9270 1
    4348     9080     9081 1
    4349     2180     2181 1
    4350     3873     3872 1
    4351     5612     5614 1
    4352     8807     8809 1
    4353     8618     8620 1
    4354     8645     8647 1
    4355     3952     3953 1
    4356     8456     8458 1
    4357     6539     6541 1
    4358     8483     8485 1
    4359     6377     6379 1
    4360    11810    11811 1
    4361     9947     9948 1
    4362    10298    10299 1
    4363    10865    10866 1
    4364     9251     9252 1
    4365     7334     7335 1
    4366    11459    11460 1
    4367     4634     4636 1
    4368     6410     6411 1
    4369     4586     4588 1
    4370     4493     4494 1
    4371      845      844 1
    4372     3332     3333 1
    4373     9818     9820 1
    4374    11249    11251 1
    4375    11573    11575 1
    4376     9980     9982 1
    4377    10709    10711 1
    4378     8837     8838 1
    4379     8633     8635 1
    4380     8471     8473 1
    4381     3930     3931 1
    4382      825      826 1
    4383      871      872 1
    4384     4385     4387 1
    4385     9059     9060 1
    4386     3848     3850 1
    4387     4856     4857 1
    4388    10619    10620 1
    4389      543      544 1
    4390     3573     3574 1
    4391    11294    11295 1
    4392    10781    10782 1
    4393     2196     2197 1
    4394     2982     2983 1
    4395      667      668 1
    4396     1717     1718 1
    4397      418      419 1
    4398     1823     1824 1
    4399     2963     2965 1
    4400     6959     6960 1
    4401      348      349 1
    4402     4366     4367 1
    4403     4276     4277 1
    4404      385      384 1
    4405    10247    10248 1
    4406      575      576 1
    4407    10409    10410 1
    4408      690      691 1
    4409     4179     4180 1
    4410     4359     4360 1
    4411      553      554 1
    4412     3631     3632 1
    4413     3186     3187 1
    4414     3192     3193 1
    4415     2643     2644 1
    4416     2967     2968 1
    4417     5530     5528 1
    4418     2149     2150 1
    4419     1665     1666 1
    4420     2656     2657 1
    4421     3804     3805 1
    4422      258      259 1
    4423     2320     2321 1
    4424     2857     2858 1
    4425      220      218 1
    4426     3474     3475 1
    4427     2545     2546 1
    4428      477      478 1
    4429     6015     6014 1
    4430     7871     7872 1
    4431    10397    10399 1
    4432    10235    10237 1
    4433      866      868 1
    4434      998      999 1
    4435    10925    10926 1
    4436    11519    11520 1
    4437    11357    11358 1
    4438     6020     6022 1
    4439     7277     7279 1
    4440     8951     8953 1
    4441     9032     9034 1
    4442     6710     6712 1
    4443    10604    10606 1
    4444    11360    11362 1
    4445    11522    11524 1
    4446     3224     3225 1
    4447     8789     8791 1
    4448     2468     2469 1
    4449    10442    10444 1
    4450     8594     8595 1
    4451     2304     2305 1
    4452     3060     3061 1
    4453     3384     3385 1
    4454      466      467 1
    4455     4487     4488 1
    4456      734      733 1
    4457     7232     7234 1
    4458     9542     9544 1
    4459    12053    12055 1
    4460    11216    11218 1
    4461    10622    10624 1
    4462    11054    11056 1
    4463     9704     9706 1
    4464    10136    10138 1
    4465     2357     2358 1
    4466    10784    10786 1
    4467    11621    11623 1
    4468     1691     1689 1
    4469      462      461 1
    4470     1928     1929 1
    4471      651      652 1
    4472     3456     3457 1
    4473     3246     3247 1
    4474     3783     3784 1
    4475     4071     4072 1
    4476      975      976 1
    4477      142      121 1
    4478     1955     1956 1
    4479     4826     4827 1
    4480     8498     8499 1
    4481     4291     4292 1
    4482     7766     7767 1
    4483     3846     3825 1
    4484     3240     3241 1
    4485      639      640 1
    4486     1506     1507 1
    4487      969      970 1
    4488      753      754 1
    4489     2691     2692 1
    4490      744      745 1
    4491      278      280 1
    4492    10856    10857 1
    4493     9938     9939 1
    4494    11018    11019 1
    4495    10100    10101 1
    4496     3971     3972 1
    4497     4197     4198 1
    4498     4163     4164 1
    4499     2973     2974 1
    4500     1788     1789 1
    4501     2319     2320 1
    4502     2547     2548 1
    4503    11849    11851 1
    4504    10688    10690 1
    4505     4343     4344 1
    4506     1228     1229 1
    4507     4490     4491 1
    4508     2233     2234 1
    4509     7770     7769 1
    4510     7122     7121 1
    4511     8877     8876 1
    4512    10631    10632 1
    4513    10793    10794 1
    4514      989      990 1
    4515     1097     1098 1
    4516      788      789 1
    4517     5561     5563 1
    4518     9548     9550 1
    4519    10628    10630 1
    4520     9710     9712 1
    4521    10790    10792 1
    4522     9188     9189 1
    4523    11627    11629 1
    4524     7094     7096 1
    4525     5042     5044 1
    4526     8984     8986 1
    4527     6413     6415 1
    4528     1703     1704 1
    4529      404      405 1
    4530     7373     7375 1
    4531     5834     5836 1
    4532     5240     5242 1
    4533     5078     5080 1
    4534     8075     8077 1
    4535     4700     4702 1
    4536     5618     5620 1
    4537     3118     3120 1
    4538     7913     7915 1
    4539     3932     3921 1
    4540      811      814 1
    4541     1847     1848 1
    4542     9221     9222 1
    4543    10799    10800 1
    4544      504      505 1
    4545     1155     1156 1
    4546     4049     4050 1
    4547     3071     3073 1
    4548     6446     6447 1
    4549      498      499 1
    4550     1010     1011 1
    4551     1346     1347 1
    4552      485      486 1
    4553     9257     9258 1
    4554     4748     4749 1
    4555     7421     7422 1
    4556     5585     5586 1
    4557     9419     9420 1
    4558     7583     7584 1
    4559     7178     7179 1
    4560     4120     4121 1
    4561      258      257 1
    4562    11852    11853 1
    4563    10259    10260 1
    4564    11771    11772 1
    4565     9854     9855 1
    4566    10178    10179 1
    4567    10340    10341 1
    4568     1497     1498 1
    4569    12014    12015 1
    4570    11417    11418 1
    4571     3245     3246 1
    4572     4016     4005 1
    4573     1024     1025 1
    4574     6799     6797 1
    4575     7802     7804 1
    4576      929      930 1
    4577     1857     1858 1
    4578     3254     3256 1
    4579     1916     1917 1
    4580    10163    10164 1
    4581     9968     9969 1
    4582     9806     9807 1
    4583    10211    10212 1
    4584    10724    10725 1
    4585    11561    11562 1
    4586    11291    11292 1
    4587    10049    10050 1
    4588      212      211 1
    4589     3298     3299 1
    4590     2425     2426 1
    4591     4078     4079 1
    4592     3588     3589 1
    4593     4073     4062 1
    4594     1372     1373 1
    4595     5117     5118 1
    4596     9533     9535 1
    4597     9695     9697 1
    4598     9884     9886 1
    4599     2253     2254 1
    4600    11612    11614 1
    4601    11963    11965 1
    4602    10898    10899 1
    4603    10817    10818 1
    4604     1435     1436 1
    4605      892      893 1
    4606     5711     5713 1
    4607     7628     7630 1
    4608     5792     5794 1
    4609     4874     4876 1
    4610     9464     9466 1
    4611     1324     1325 1
    4612     7709     7711 1
    4613     7547     7549 1
    4614      253      252 1
    4615     3577     3578 1
    4616     5828     5830 1
    4617     4694     4696 1
    4618     8069     8071 1
    4619     5234     5236 1
    4620     7907     7909 1
    4621     5072     5074 1
    4622     7367     7369 1
    4623     3275     3276 1
    4624     4092     4091 1
    4625     9086     9088 1
    4626     1353     1354 1
    4627     1943     1942 1
    4628      734      735 1
    4629     6965     6966 1
    4630     2733     2736 1
    4631     1985     1986 1
    4632     2101     2102 1
    4633     2011     2012 1
    4634     3338     3339 1
    4635     2883     2884 1
    4636     3756     3757 1
    4637     4904     4905 1
    4638     1834     1835 1
    4639    11456    11458 1
    4640     9566     9568 1
    4641    11807    11809 1
    4642    11645    11647 1
    4643     9728     9730 1
    4644      954      955 1
    4645     9065     9066 1
    4646     1530     1531 1
    4647      456      457 1
    4648     1016     1017 1
    4649     2543     2544 1
    4650     1766     1767 1
    4651     4215     4214 1
    4652     4268     4267 1
    4653     2294     2295 1
    4654     4358     4357 1
    4655     4305     4304 1
    4656     4958     4960 1
    4657     7469     7471 1
    4658     1608     1609 1
    4659      816      817 1
    4660     4796     4798 1
    4661     7388     7390 1
    4662     5552     5554 1
    4663     4472     4473 1
    4664     4715     4717 1
    4665     5633     5635 1
    4666      926      928 1
    4667    10505    10506 1
    4668    11207    11208 1
    4669    10586    10587 1
    4670     1201     1202 1
    4671    10964    10965 1
    4672      877      878 1
    4673    11045    11046 1
    4674     2063     2064 1
    4675     2029     2030 1
    4676     4286     4287 1
    4677     4376     4377 1
    4678     1940     1941 1
    4679     1976     1977 1
    4680     8693     8695 1
    4681     7019     7021 1
    4682     7100     7102 1
    4683     6488     6489 1
    4684     6353     6354 1
    4685     6191     6192 1
    4686     6920     6921 1
    4687     8270     8271 1
    4688     6758     6759 1
    4689     5165     5166 1
    4690     6083     6084 1
    4691     8675     8676 1
    4692     8567     8568 1
    4693    10367    10368 1
    4694    10475    10477 1
    4695     6674     6676 1
    4696     2305     2306 1
    4697     8672     8674 1
    4698     8591     8593 1
    4699     6755     6757 1
    4700     6836     6838 1
    4701     8753     8755 1
    4702     6917     6919 1
    4703     8711     8712 1
    4704     6389     6390 1
    4705    11933    11935 1
    4706     7118     7119 1
    4707    11513    11514 1
    4708     9935     9937 1
    4709     8468     8469 1
    4710    10556    10558 1
    4711    10016    10018 1
    4712    11000    11001 1
    4713    10637    10639 1
    4714     8813     8814 1
    4715      262      263 1
    4716     3805     3806 1
    4717     2064     2065 1
    4718      547      548 1
    4719      501      502 1
    4720     2466     2467 1
    4721     5324     5325 1
    4722     7079     7080 1
    4723     7997     7998 1
    4724     6242     6243 1
    4725     4030     4019 1
    4726     2280     2259 1
    4727     4916     4918 1
    4728     3766     3768 1
    4729     5672     5674 1
    4730     7751     7753 1
    4731       28       29 1
    4732     8588     8590 1
    4733     8750     8752 1
    4734     6833     6835 1
    4735     9506     9508 1
    4736     6671     6673 1
    4737     3102     3103 1
    4738     9863     9864 1
    4739    11780    11781 1
    4740      825      827 1
    4741    10943    10944 1
    4742     2340     2341 1
    4743     6293     6295 1
    4744     5597     5599 1
    4745     9242     9244 1
    4746     4760     4762 1
    4747     4955     4956 1
    4748     7466     7467 1
    4749     6062     6063 1
    4750     4793     4794 1
    4751     7433     7435 1
    4752     9269     9271 1
    4753     9080     9082 1
    4754     2260     2261 1
    4755     3848     3849 1
    4756     4469     4470 1
    4757     1714     1715 1
    4758     8606     8607 1
    4759     4934     4935 1
    4760    10481    10483 1
    4761     2405     2406 1
    4762     2621     2622 1
    4763     4048     4049 1
    4764    11273    11275 1
    4765    10193    10195 1
    4766    10355    10357 1
    4767     4221     4222 1
    4768     7154     7155 1
    4769     5993     5994 1
    4770     7649     7651 1
    4771     7771     7769 1
    4772      644      645 1
    4773      216      215 1
    4774     1292     1293 1
    4775     1181     1182 1
    4776     2413     2414 1
    4777      663      665 1
    4778     3808     3809 1
    4779     7775     7776 1
    4780     5021     5022 1
    4781     5102     5103 1
    4782     5858     5859 1
    4783     5183     5185 1
    4784     7856     7857 1
    4785    11468    11470 1
    4786    10118    10120 1
    4787     9956     9958 1
    4788     4017     4006 1
    4789     3440     3441 1
    4790      865      868 1
    4791     2474     2473 1
    4792     6959     6961 1
    4793     4031     4020 1
    4794     3946     3935 1
    4795     3387     3388 1
    4796     9413     9414 1
    4797     1246     1247 1
    4798     4206     4207 1
    4799     4243     4244 1
    4800     3647     3648 1
    4801     3536     3537 1
    4802     1434     1435 1
    4803     2861     2862 1
    4804     8870     8872 1
    4805     4232     4233 1
    4806     2393     2394 1
    4807      148      149 1
    4808     4069     4070 1
    4809    10991    10992 1
    4810    11315    11316 1
    4811    11072    11073 1
    4812    10379    10380 1
    4813     1923     1924 1
    4814     9170     9171 1
    4815    11108    11109 1
    4816     8963     8965 1
    4817     7046     7048 1
    4818     1663     1664 1
    4819     6506     6508 1
    4820     2524     2526 1
    4821     1450     1451 1
    4822     7208     7210 1
    4823     2079     2080 1
    4824     3943     3944 1
    4825     4152     4153 1
    4826     2168     2169 1
    4827     8243     8245 1
    4828     6663     6662 1
    4829     8742     8741 1
    4830    10199    10200 1
    4831     9767     9768 1
    4832     9929     9930 1
    4833    10361    10362 1
    4834    11279    11280 1
    4835     2191     2192 1
    4836    11684    11685 1
    4837     4026     4027 1
    4838    10766    10767 1
    4839     4826     4828 1
    4840     8498     8500 1
    4841     7325     7327 1
    4842     9431     9433 1
    4843     2388     2367 1
    4844     3851     3850 1
    4845      287      285 1
    4846     3142     3141 1
    4847     9968     9970 1
    4848    11561    11563 1
    4849    10211    10213 1
    4850    10724    10726 1
    4851    11291    11293 1
    4852    10049    10051 1
    4853     1834     1833 1
    4854     9806     9808 1
    4855     8057     8059 1
    4856     1260     1261 1
    4857      834      835 1
    4858      529      530 1
    4859      723      724 1
    4860      291      292 1
    4861      516      517 1
    4862      612      613 1
    4863      526      527 1
    4864     1174     1175 1
    4865     6311     6312 1
    4866      637      638 1
    4867       21       20 1
    4868    10571    10572 1
    4869    10328    10329 1
    4870    10652    10653 1
    4871    10490    10491 1
    4872     1464     1463 1
    4873      412      391 1
    4874    10205    10206 1
    4875     2593     2594 1
    4876     3355     3356 1
    4877    11285    11286 1
    4878     1822     1823 1
    4879    10043    10044 1
    4880    10283    10284 1
    4881     9554     9555 1
    4882    10445    10446 1
    4883    11633    11634 1
    4884    11795    11796 1
    4885    11003    11005 1
    4886    11327    11329 1
    4887     9716     9717 1
    4888     1525     1526 1
    4889    11084    11086 1
    4890     5654     5656 1
    4891     5060     5062 1
    4892     9164     9166 1
    4893     9488     9490 1
    4894     6410     6412 1
    4895     7409     7411 1
    4896     7571     7573 1
    4897     8651     8653 1
    4898     7247     7249 1
    4899     5492     5494 1
    4900    11156    11157 1
    4901    11480    11481 1
    4902    10940    10941 1
    4903     4484     4485 1
    4904     6335     6337 1
    4905     9206     9207 1
    4906     3190     3191 1
    4907     2653     2654 1
    4908     3301     3302 1
    4909     9363     9362 1
    4910     3613     3614 1
    4911     5853     5852 1
    4912     2965     2966 1
    4913     2467     2468 1
    4914     4811     4812 1
    4915      245      246 1
    4916     9764     9765 1
    4917     9926     9927 1
    4918     9656     9657 1
    4919     1534     1535 1
    4920     1634     1635 1
    4921     8531     8532 1
    4922     1538     1539 1
    4923     6776     6777 1
    4924     6614     6615 1
    4925     2576     2577 1
    4926      241      242 1
    4927     1645     1646 1
    4928      883      884 1
    4929     6446     6448 1
    4930     9257     9259 1
    4931     7178     7180 1
    4932     4748     4750 1
    4933     7421     7423 1
    4934     5585     5587 1
    4935     7583     7585 1
    4936     9419     9421 1
    4937     2738     2739 1
    4938     2243     2244 1
    4939     9053     9054 1
    4940      731      732 1
    4941     3684     3685 1
    4942      869      868 1
    4943     2366     2367 1
    4944     1031     1030 1
    4945    11744    11746 1
    4946    11321    11323 1
    4947    10997    10999 1
    4948    11078    11080 1
    4949     3838     3837 1
    4950     7715     7716 1
    4951     8621     8622 1
    4952     6218     6219 1
    4953      414      415 1
    4954     7982     7984 1
    4955     5903     5905 1
    4956     5147     5149 1
    4957     6995     6996 1
    4958     7076     7077 1
    4959     4985     4987 1
    4960     7157     7158 1
    4961     2470     2471 1
    4962     6983     6985 1
    4963     1401     1402 1
    4964      858      859 1
    4965     1395     1396 1
    4966     3667     3668 1
    4967     1819     1820 1
    4968      321      322 1
    4969     1466     1468 1
    4970     8234     8236 1
    4971     6992     6994 1
    4972     2859     2860 1
    4973     5786     5787 1
    4974     7154     7156 1
    4975     7622     7623 1
    4976     5705     5706 1
    4977     8972     8973 1
    4978     5399     5401 1
    4979     7703     7704 1
    4980     7055     7056 1
    4981     8891     8892 1
    4982     7136     7137 1
    4983     5206     5204 1
    4984     2943     2942 1
    4985     3801     3800 1
    4986     1283     1284 1
    4987     1469     1470 1
    4988      971      972 1
    4989     6053     6055 1
    4990     5378     5380 1
    4991     5297     5299 1
    4992     8051     8053 1
    4993     8132     8134 1
    4994     6296     6298 1
    4995     6134     6136 1
    4996     8441     8442 1
    4997    10961    10963 1
    4998     8360     8361 1
    4999     4143     4144 1
    5000     8165     8166 1
    5001     2384     2385 1
    5002     5525     5526 1
    5003    11123    11125 1
    5004     4020     4021 1
    5005     3904     3905 1
    5006     2524     2527 1
    5007    11465    11467 1
    5008    10979    10981 1
    5009     5969     5970 1
    5010    11141    11143 1
    5011     9065     9067 1
    5012     3954     3955 1
    5013     3069     3070 1
    5014     2449     2448 1
    5015     3751     3750 1
    5016     3823     3824 1
    5017     7052     7053 1
    5018     8969     8970 1
    5019     6512     6513 1
    5020     7214     7215 1
    5021     4790     4791 1
    5022     4472     4474 1
    5023     3461     3462 1
    5024     2556     2557 1
    5025     3652     3654 1
    5026     3760     3762 1
    5027     8270     8272 1
    5028     6488     6490 1
    5029     6353     6355 1
    5030     5165     5167 1
    5031     6083     6085 1
    5032     8675     8677 1
    5033     6191     6193 1
    5034     6920     6922 1
    5035     8405     8407 1
    5036     7838     7840 1
    5037     9368     9369 1
    5038      891      892 1
    5039     1212     1213 1
    5040     1457     1458 1
    5041     1628     1631 1
    5042     4865     4866 1
    5043     2371     2372 1
    5044     4362     4363 1
    5045     4272     4273 1
    5046     1835     1836 1
    5047     4182     4183 1
    5048    10247    10249 1
    5049    10409    10411 1
    5050     1776     1777 1
    5051     4193     4194 1
    5052      370      371 1
    5053     4109     4110 1
    5054     8864     8866 1
    5055     6664     6662 1
    5056     8743     8741 1
    5057     7285     7283 1
    5058     2136     2137 1
    5059     9202     9200 1
    5060     1986     1987 1
    5061      743      744 1
    5062     5168     5169 1
    5063     7841     7842 1
    5064     6086     6087 1
    5065     8840     8841 1
    5066     9002     9003 1
    5067     3187     3188 1
    5068     3076     3077 1
    5069     3477     3478 1
    5070     2514     2515 1
    5071     2292     2293 1
    5072     3838     3839 1
    5073     3366     3367 1
    5074     2764     2765 1
    5075     8273     8274 1
    5076    10172    10173 1
    5077      403      404 1
    5078      724      725 1
    5079      514      515 1
    5080     9560     9562 1
    5081    11450    11452 1
    5082    11801    11803 1
    5083    11639    11641 1
    5084      727      728 1
    5085     4451     4453 1
    5086    11789    11790 1
    5087    10196    10197 1
    5088    10250    10251 1
    5089    10358    10359 1
    5090     9872     9873 1
    5091     8141     8143 1
    5092     4955     4957 1
    5093     7466     7468 1
    5094     6062     6064 1
    5095     9902     9904 1
    5096     5306     5308 1
    5097    11900    11902 1
    5098    11738    11740 1
    5099     7385     7387 1
    5100     4793     4795 1
    5101    11981    11983 1
    5102     3168     3169 1
    5103     4934     4936 1
    5104     8606     8608 1
    5105     2463     2466 1
    5106     1931     1932 1
    5107    10412    10413 1
    5108     3645     3646 1
    5109     2772     2773 1
    5110     3348     3349 1
    5111     3237     3238 1
    5112      329      330 1
    5113     3928     3929 1
    5114      686      687 1
    5115     1034     1035 1
    5116     2041     2042 1
    5117     3644     3645 1
    5118     2855     2857 1
    5119     2771     2772 1
    5120      345      346 1
    5121     1218     1219 1
    5122     3194     3195 1
    5123     1765     1766 1
    5124       99      100 1
    5125      116      119 1
    5126     1955     1954 1
    5127     1617     1618 1
    5128     4640     4641 1
    5129     5024     5025 1
    5130     7859     7860 1
    5131      360      362 1
    5132    11288    11289 1
    5133      497      498 1
    5134     4418     4419 1
    5135     3961     3950 1
    5136     2705     2706 1
    5137     2267     2268 1
    5138     3029     3030 1
    5139    10253    10254 1
    5140     3779     3780 1
    5141     4070     4071 1
    5142     3890     3891 1
    5143    10415    10416 1
    5144      166      167 1
    5145      738      740 1
    5146     1710     1712 1
    5147     1811     1800 1
    5148     5630     5631 1
    5149    12014    12016 1
    5150    11480    11482 1
    5151    11156    11158 1
    5152    10940    10942 1
    5153     4484     4486 1
    5154    11117    11118 1
    5155     2562     2563 1
    5156     2565     2566 1
    5157     1365     1367 1
    5158     3636     3637 1
    5159      869      870 1
    5160     2190     2179 1
    5161     3322     3323 1
    5162     2800     2801 1
    5163     2908     2909 1
    5164     8303     8304 1
    5165     4637     4638 1
    5166     7952     7953 1
    5167     6035     6036 1
    5168     6116     6117 1
    5169     2552     2553 1
    5170     6467     6468 1
    5171     5954     5955 1
    5172      300      301 1
    5173     5015     5016 1
    5174     6932     6933 1
    5175      822      823 1
    5176      263      264 1
    5177     6017     6018 1
    5178     7934     7935 1
    5179     6719     6720 1
    5180     8312     8313 1
    5181     1404     1403 1
    5182     1822     1821 1
    5183     5423     5424 1
    5184      628      629 1
    5185     5261     5262 1
    5186     6557     6558 1
    5187      220      217 1
    5188      391      392 1
    5189      715      716 1
    5190     2383     2384 1
    5191      876      877 1
    5192    10229    10230 1
    5193     3064     3065 1
    5194    10391    10392 1
    5195     8597     8599 1
    5196     8678     8680 1
    5197     6761     6763 1
    5198     4255     4254 1
    5199     6680     6682 1
    5200     8759     8761 1
    5201     6842     6844 1
    5202     6923     6925 1
    5203      194      195 1
    5204     3038     3040 1
    5205     1628     1630 1
    5206     6830     6831 1
    5207     6668     6669 1
    5208     8585     8586 1
    5209     8666     8667 1
    5210     1423     1424 1
    5211     8747     8748 1
    5212      886      887 1
    5213     6911     6912 1
    5214     6749     6750 1
    5215     6311     6313 1
    5216     3710     3711 1
    5217     4679     4681 1
    5218     4439     4441 1
    5219     2928     2929 1
    5220     3454     3453 1
    5221     3122     3123 1
    5222     3230     3231 1
    5223    10973    10974 1
    5224    11540    11541 1
    5225     2518     2520 1
    5226     8465     8467 1
    5227     2672     2673 1
    5228     2561     2562 1
    5229     1615     1614 1
    5230     1224     1225 1
    5231     1581     1582 1
    5232     1332     1333 1
    5233     1945     1946 1
    5234       57       58 1
    5235     3070     3071 1
    5236      494      496 1
    5237      771      772 1
    5238    10910    10911 1
    5239     4502     4504 1
    5240     3972     3973 1
    5241     9287     9289 1
    5242     9125     9127 1
    5243     1678     1675 1
    5244     1870     1871 1
    5245     1037     1038 1
    5246     1989     1990 1
    5247     6323     6325 1
    5248     4973     4975 1
    5249     7970     7972 1
    5250     6485     6487 1
    5251     7484     7486 1
    5252     6339     6338 1
    5253     9401     9403 1
    5254     8402     8404 1
    5255     5567     5569 1
    5256     6971     6973 1
    5257     8513     8515 1
    5258    10244    10245 1
    5259     9866     9867 1
    5260    11783    11784 1
    5261    11864    11865 1
    5262    10406    10407 1
    5263     3226     3229 1
    5264      542      544 1
    5265     3595     3596 1
    5266     2209     2210 1
    5267     3698     3699 1
    5268     2095     2096 1
    5269     5132     5133 1
    5270     7697     7698 1
    5271     7715     7717 1
    5272     1365     1366 1
    5273     2043     2044 1
    5274     6107     6108 1
    5275     6026     6027 1
    5276     5270     5271 1
    5277     5945     5946 1
    5278     8429     8430 1
    5279     8348     8349 1
    5280     5432     5433 1
    5281     7943     7944 1
    5282     2768     2769 1
    5283     5627     5628 1
    5284     4375     4376 1
    5285     4285     4286 1
    5286     7076     7078 1
    5287     6995     6997 1
    5288      234      233 1
    5289     3489     3492 1
    5290     7157     7159 1
    5291     2470     2472 1
    5292     4068     4069 1
    5293     3033     3034 1
    5294     2271     2272 1
    5295     3789     3790 1
    5296     1192     1193 1
    5297     7622     7624 1
    5298     5705     5707 1
    5299     9053     9055 1
    5300     7055     7057 1
    5301     8972     8974 1
    5302     7703     7705 1
    5303     7136     7138 1
    5304     6812     6814 1
    5305     5786     5788 1
    5306     9458     9460 1
    5307     8390     8391 1
    5308     6554     6555 1
    5309     1422     1423 1
    5310      453      454 1
    5311      581      582 1
    5312     8819     8820 1
    5313     1281     1282 1
    5314     2259     2260 1
    5315     2433     2434 1
    5316     3513     3514 1
    5317     3189     3190 1
    5318     2970     2971 1
    5319     5624     5626 1
    5320     4151     4152 1
    5321     7085     7086 1
    5322     5691     5690 1
    5323     9525     9524 1
    5324     4746     4745 1
    5325     8418     8417 1
    5326     2833     2834 1
    5327     3439     3440 1
    5328     5870     5871 1
    5329      566      567 1
    5330     1640     1641 1
    5331     8369     8370 1
    5332     2728     2729 1
    5333     8720     8721 1
    5334      683      684 1
    5335     8207     8208 1
    5336     6641     6642 1
    5337        2        4 1
    5338     6272     6273 1
    5339     4574     4575 1
    5340     2070     2059 1
    5341    11567    11569 1
    5342     9974     9976 1
    5343    10217    10219 1
    5344    10541    10543 1
    5345     9812     9814 1
    5346    11945    11947 1
    5347      518      519 1
    5348     2789     2790 1
    5349     1043     1044 1
    5350     3819     3820 1
    5351     4229     4230 1
    5352     2882     2881 1
    5353     2058     2059 1
    5354     1968     1969 1
    5355      271      274 1
    5356    10136    10137 1
    5357     1408     1409 1
    5358     3403     3402 1
    5359     3069     3068 1
    5360     4055     4056 1
    5361     7256     7257 1
    5362     8174     8175 1
    5363     9173     9174 1
    5364     8552     8553 1
    5365      914      915 1
    5366      146      147 1
    5367      908      909 1
    5368      304      305 1
    5369    10706    10707 1
    5370     4814     4815 1
    5371       21       22 1
    5372     3803     3804 1
    5373      270      269 1
    5374     3247     3248 1
    5375     2698     2699 1
    5376     3358     3359 1
    5377     3559     3560 1
    5378    10028    10029 1
    5379       51       52 1
    5380     2001     2002 1
    5381     4255     4256 1
    5382     5075     5077 1
    5383     8909     8911 1
    5384      367      368 1
    5385     8072     8074 1
    5386     9662     9664 1
    5387    10823    10825 1
    5388    10256    10258 1
    5389     5831     5833 1
    5390    10661    10663 1
    5391    11741    11743 1
    5392    12011    12013 1
    5393     8450     8452 1
    5394     2636     2635 1
    5395     3776     3777 1
    5396     2270     2271 1
    5397     1442     1440 1
    5398    10874    10875 1
    5399      295      296 1
    5400     3334     3337 1
    5401     1867     1856 1
    5402    11036    11037 1
    5403     1153     1154 1
    5404     3887     3888 1
    5405     1436     1437 1
    5406     2608     2609 1
    5407     3481     3482 1
    5408     1325     1326 1
    5409      563      564 1
    5410     1637     1638 1
    5411    11951    11953 1
    5412    10223    10225 1
    5413    10034    10036 1
    5414    10061    10063 1
    5415    11303    11305 1
    5416    11114    11116 1
    5417     2689     2690 1
    5418     2358     2359 1
    5419      395      396 1
    5420      626      627 1
    5421     1694     1695 1
    5422     7385     7386 1
    5423     5024     5026 1
    5424     4640     4642 1
    5425     7859     7861 1
    5426       22       23 1
    5427     4619     4620 1
    5428     2866     2867 1
    5429     2151     2152 1
    5430      507      508 1
    5431     1380     1381 1
    5432      679      680 1
    5433     1393     1394 1
    5434      319      320 1
    5435     1900     1901 1
    5436     1844     1845 1
    5437     8123     8124 1
    5438     6044     6045 1
    5439     5288     5289 1
    5440     5369     5370 1
    5441     1709     1710 1
    5442     8042     8043 1
    5443     6125     6126 1
    5444      413      414 1
    5445     2970     2969 1
    5446     6287     6288 1
    5447     9476     9478 1
    5448    11435    11436 1
    5449     9143     9144 1
    5450     2006     2007 1
    5451     3263     3264 1
    5452     2729     2730 1
    5453     2399     2398 1
    5454     1923     1912 1
    5455     2380     2381 1
    5456     1074     1075 1
    5457     2367     2368 1
    5458      687      688 1
    5459     2632     2633 1
    5460    10571    10573 1
    5461    10328    10330 1
    5462    10652    10654 1
    5463     4129     4130 1
    5464    10490    10492 1
    5465     4224     4225 1
    5466     4162     4163 1
    5467     4165     4166 1
    5468     4199     4200 1
    5469     6140     6142 1
    5470     6302     6304 1
    5471     4952     4954 1
    5472     7463     7465 1
    5473     5303     5305 1
    5474     6059     6061 1
    5475     4790     4792 1
    5476     5384     5386 1
    5477     4165     4164 1
    5478     7382     7384 1
    5479      854      855 1
    5480      674      675 1
    5481     9536     9537 1
    5482    11615    11616 1
    5483     9887     9888 1
    5484    10616    10617 1
    5485     9698     9699 1
    5486    11966    11967 1
    5487    10805    10806 1
    5488    10778    10779 1
    5489     1527     1529 1
    5490     1807     1808 1
    5491       65       66 1
    5492    11099    11101 1
    5493    10019    10021 1
    5494     2477     2479 1
    5495     3395     3396 1
    5496    11936    11938 1
    5497     4703     4704 1
    5498      785      786 1
    5499     1639     1640 1
    5500      846      847 1
    5501      781      782 1
    5502     8303     8305 1
    5503     4637     4639 1
    5504     7952     7954 1
    5505     6116     6118 1
    5506     1094     1095 1
    5507     2110     2111 1
    5508     6467     6469 1
    5509     5441     5443 1
    5510     6224     6226 1
    5511     6932     6934 1
    5512     5015     5017 1
    5513     4118     4119 1
    5514     5012     5014 1
    5515     6281     6283 1
    5516     6557     6559 1
    5517     7934     7936 1
    5518     6017     6019 1
    5519     6719     6721 1
    5520     8312     8314 1
    5521     5423     5425 1
    5522     5261     5263 1
    5523     5063     5065 1
    5524     4868     4869 1
    5525     4463     4465 1
    5526     1379     1380 1
    5527     2189     2190 1
    5528    10757    10758 1
    5529     2160     2149 1
    5530     1838     1827 1
    5531     5156     5158 1
    5532     2382     2383 1
    5533     3459     3460 1
    5534     1124     1125 1
    5535     3208     3209 1
    5536     3634     3635 1
    5537     9593     9595 1
    5538    11024    11026 1
    5539     3682     3683 1
    5540     3745     3746 1
    5541    10862    10864 1
    5542    11186    11188 1
    5543     4003     3992 1
    5544     3202     3203 1
    5545     9944     9946 1
    5546    10106    10108 1
    5547     3181     3179 1
    5548     9443     9444 1
    5549     2321     2322 1
    5550     3083     3084 1
    5551     1906     1905 1
    5552     3953     3954 1
    5553     8459     8460 1
    5554     3158     3159 1
    5555     2498     2499 1
    5556     2746     2747 1
    5557     3482     3483 1
    5558     2396     2397 1
    5559     6065     6067 1
    5560     7793     7795 1
    5561     5876     5878 1
    5562     5942     5943 1
    5563     8063     8065 1
    5564     6104     6105 1
    5565     6146     6148 1
    5566     5309     5311 1
    5567     5039     5041 1
    5568     8144     8146 1
    5569     8399     8400 1
    5570     5186     5187 1
    5571     8561     8562 1
    5572     4338     4339 1
    5573     1632     1633 1
    5574     3183     3184 1
    5575     5692     5690 1
    5576     9526     9524 1
    5577       59       60 1
    5578      962      963 1
    5579      428      429 1
    5580     1727     1728 1
    5581      641      642 1
    5582     9023     9025 1
    5583     7268     7270 1
    5584     9185     9187 1
    5585     2013     2014 1
    5586     7064     7065 1
    5587     9677     9678 1
    5588    10919    10920 1
    5589     6713     6714 1
    5590     7226     7227 1
    5591     3674     3675 1
    5592     3452     3453 1
    5593     2600     2601 1
    5594     2378     2379 1
    5595     2912     2913 1
    5596     3350     3351 1
    5597     1921     1922 1
    5598     3128     3129 1
    5599     2588     2589 1
    5600     7655     7656 1
    5601      458      459 1
    5602     4724     4726 1
    5603     2030     2031 1
    5604     1941     1942 1
    5605     1977     1978 1
    5606      757      760 1
    5607     2067     2068 1
    5608      522      524 1
    5609     1195     1196 1
    5610     1149     1150 1
    5611     1965     1966 1
    5612     6947     6949 1
    5613     8078     8079 1
    5614     8915     8916 1
    5615     7916     7917 1
    5616     5243     5244 1
    5617     5081     5082 1
    5618     5837     5838 1
    5619     6548     6549 1
    5620     2275     2274 1
    5621     1034     1037 1
    5622     9917     9918 1
    5623     9755     9756 1
    5624    11672    11673 1
    5625    10754    10755 1
    5626      656      657 1
    5627    10109    10111 1
    5628    11690    11691 1
    5629      430      431 1
    5630      853      854 1
    5631     4333     4334 1
    5632     7526     7527 1
    5633     4853     4854 1
    5634     6608     6609 1
    5635     1098     1099 1
    5636     8525     8526 1
    5637     1334     1335 1
    5638     2870     2871 1
    5639      578      579 1
    5640     1716     1715 1
    5641      747      746 1
    5642       47       48 1
    5643     2615     2616 1
    5644     3630     3609 1
    5645      576      578 1
    5646     4239     4240 1
    5647     1633     1634 1
    5648     4379     4380 1
    5649     4252     4253 1
    5650      589      590 1
    5651     4154     4155 1
    5652     7447     7445 1
    5653      527      528 1
    5654     2793     2792 1
    5655     8030     8031 1
    5656     5357     5358 1
    5657     6356     6357 1
    5658     7787     7788 1
    5659     6194     6195 1
    5660     5114     5115 1
    5661     8111     8112 1
    5662     8192     8193 1
    5663     7868     7869 1
    5664     2761     2762 1
    5665     2872     2873 1
    5666     3150     3151 1
    5667     3622     3623 1
    5668     3733     3734 1
    5669     2718     2719 1
    5670     3184     3185 1
    5671     3480     3481 1
    5672     3261     3262 1
    5673     3369     3370 1
    5674     6704     6705 1
    5675     3591     3592 1
    5676      949      950 1
    5677     2021     2022 1
    5678     2074     2075 1
    5679     2046     2047 1
    5680     9875     9877 1
    5681    11792    11794 1
    5682     4008     4009 1
    5683     4670     4671 1
    5684     2628     2629 1
    5685     2952     2953 1
    5686     8390     8392 1
    5687     6554     6556 1
    5688     5720     5722 1
    5689    11594    11596 1
    5690    11081    11083 1
    5691     2681     2682 1
    5692     1758     1759 1
    5693     2568     2569 1
    5694     4265     4266 1
    5695     3176     3177 1
    5696      436      437 1
    5697     1142     1143 1
    5698     9383     9385 1
    5699     3203     3204 1
    5700     6230     6231 1
    5701     3314     3315 1
    5702     1104     1105 1
    5703     2864     2865 1
    5704     3908     3909 1
    5705     3044     3045 1
    5706      420      421 1
    5707     1531     1532 1
    5708     3834     3835 1
    5709     4112     4113 1
    5710     3820     3822 1
    5711    11579    11581 1
    5712     3763     3764 1
    5713     9605     9606 1
    5714    11198    11199 1
    5715     9194     9195 1
    5716     1109     1110 1
    5717    11087    11089 1
    5718    11231    11232 1
    5719     8174     8176 1
    5720     7256     7258 1
    5721     8552     8554 1
    5722     8813     8815 1
    5723     9173     9175 1
    5724     2175     2164 1
    5725     3955     3956 1
    5726     1154     1155 1
    5727     2819     2818 1
    5728     5129     5130 1
    5729     3778     3777 1
    5730     8567     8569 1
    5731    11615    11617 1
    5732     9698     9700 1
    5733     9536     9538 1
    5734     9887     9889 1
    5735    10616    10618 1
    5736    10805    10807 1
    5737    11966    11968 1
    5738    10778    10780 1
    5739     2805     2806 1
    5740     3544     3546 1
    5741     3163     3164 1
    5742     1958     1959 1
    5743     7040     7041 1
    5744     2114     2115 1
    5745     1774     1773 1
    5746     1169     1170 1
    5747      101      102 1
    5748    10232    10233 1
    5749    11555    11556 1
    5750     9962     9963 1
    5751     3663     3664 1
    5752     1825     1814 1
    5753     2908     2907 1
    5754     1284     1285 1
    5755    10394    10395 1
    5756    11876    11877 1
    5757     4400     4401 1
    5758     9608     9609 1
    5759     9770     9771 1
    5760    11525    11526 1
    5761     1867     1868 1
    5762    11687    11688 1
    5763    11714    11715 1
    5764     2244     2245 1
    5765     7976     7978 1
    5766     4979     4981 1
    5767     5897     5899 1
    5768     1444     1445 1
    5769     3084     3085 1
    5770     5141     5143 1
    5771     5462     5464 1
    5772     6380     6382 1
    5773     6977     6979 1
    5774      132      131 1
    5775     9752     9753 1
    5776    11669    11670 1
    5777     9914     9915 1
    5778    11264    11265 1
    5779     4149     4150 1
    5780     1443     1444 1
    5781     1668     1669 1
    5782     3582     3583 1
    5783     7190     7191 1
    5784    11828    11830 1
    5785    11990    11992 1
    5786     9992     9994 1
    5787    10154    10156 1
    5788     3370     3371 1
    5789     3373     3374 1
    5790     6479     6480 1
    5791     9395     9396 1
    5792      349      350 1
    5793     1111     1112 1
    5794     8396     8397 1
    5795     7478     7479 1
    5796     2218     2219 1
    5797     5561     5562 1
    5798     8558     8559 1
    5799     8042     8044 1
    5800     6044     6046 1
    5801     5288     5290 1
    5802     5369     5371 1
    5803     8123     8125 1
    5804     6287     6289 1
    5805     6125     6127 1
    5806     2414     2415 1
    5807     4096     4097 1
    5808     7217     7218 1
    5809      941      942 1
    5810     1052     1053 1
    5811     3330     3328 1
    5812     3632     3634 1
    5813     3696     3697 1
    5814     3207     3208 1
    5815     1964     1965 1
    5816     3669     3670 1
    5817     4246     4247 1
    5818     3096     3097 1
    5819     3432     3433 1
    5820    10079    10081 1
    5821    11915    11917 1
    5822     9836     9838 1
    5823     4406     4407 1
    5824     1250     1251 1
    5825     3320     3321 1
    5826     3095     3096 1
    5827     3206     3207 1
    5828     3431     3432 1
    5829     5207     5209 1
    5830     3317     3318 1
    5831     3797     3798 1
    5832     4649     4650 1
    5833     2205     2206 1
    5834     2222     2223 1
    5835     3826     3827 1
    5836     9008     9010 1
    5837     8846     8848 1
    5838     1753     1754 1
    5839     6497     6499 1
    5840     7847     7849 1
    5841     6092     6094 1
    5842     8414     8416 1
    5843     8576     8578 1
    5844     5579     5581 1
    5845     9413     9415 1
    5846     1635     1636 1
    5847    11855    11856 1
    5848    10694    10695 1
    5849    10460    10461 1
    5850     1666     1667 1
    5851     8216     8217 1
    5852     6110     6111 1
    5853     6461     6462 1
    5854     8486     8487 1
    5855     8378     8379 1
    5856     6650     6651 1
    5857     8729     8730 1
    5858     5273     5274 1
    5859     8297     8298 1
    5860     6380     6381 1
    5861    10286    10288 1
    5862    10448    10450 1
    5863     7331     7332 1
    5864     2500     2501 1
    5865     3820     3823 1
    5866     9719     9720 1
    5867     9443     9445 1
    5868     1257     1258 1
    5869     1303     1304 1
    5870     4045     4034 1
    5871     8537     8538 1
    5872     6782     6783 1
    5873     9212     9213 1
    5874     7295     7296 1
    5875     6620     6621 1
    5876      506      507 1
    5877      623      624 1
    5878      512      513 1
    5879     2604     2605 1
    5880     5942     5944 1
    5881     6104     6106 1
    5882     8399     8401 1
    5883     5186     5188 1
    5884     6320     6322 1
    5885     8561     8563 1
    5886     6482     6484 1
    5887       34       35 1
    5888     2889     2890 1
    5889    11510    11511 1
    5890    12050    12051 1
    5891    11348    11349 1
    5892    10133    10134 1
    5893     5216     5217 1
    5894     7889     7890 1
    5895     4394     4395 1
    5896     2461     2462 1
    5897     9356     9357 1
    5898     4847     4848 1
    5899     7520     7521 1
    5900     4685     4686 1
    5901     7358     7359 1
    5902     4445     4446 1
    5903    11027    11029 1
    5904     2692     2693 1
    5905     5279     5280 1
    5906     1282     1283 1
    5907      970      971 1
    5908     8282     8283 1
    5909     6203     6204 1
    5910      351      352 1
    5911      558      559 1
    5912     1354     1352 1
    5913      593      594 1
    5914     1088     1091 1
    5915     4077     4078 1
    5916     2090     2091 1
    5917     2225     2224 1
    5918     3343     3344 1
    5919     1308     1309 1
    5920     2115     2104 1
    5921     2055     2056 1
    5922     3217     3218 1
    5923     2045     2046 1
    5924     5633     5634 1
    5925     6491     6492 1
    5926     8408     8409 1
    5927     9407     9408 1
    5928     5573     5574 1
    5929     7490     7491 1
    5930     6329     6330 1
    5931     8570     8571 1
    5932     6275     6276 1
    5933     2049     2050 1
    5934     2018     2019 1
    5935     2947     2948 1
    5936     9341     9342 1
    5937     7505     7506 1
    5938     4832     4833 1
    5939     7343     7344 1
    5940      986      987 1
    5941      662      663 1
    5942     9848     9850 1
    5943     9659     9661 1
    5944    11927    11929 1
    5945    10091    10093 1
    5946    11414    11416 1
    5947     4853     4855 1
    5948     8525     8527 1
    5949     7526     7528 1
    5950     6608     6610 1
    5951      705      706 1
    5952     3653     3654 1
    5953     2587     2585 1
    5954     3036     3037 1
    5955     1243     1246 1
    5956     1828     1829 1
    5957     2960     2961 1
    5958     3941     3942 1
    5959     4105     4106 1
    5960     6143     6145 1
    5961     2993     2994 1
    5962     2342     2343 1
    5963     3905     3906 1
    5964     8183     8184 1
    5965     2099     2100 1
    5966     5348     5349 1
    5967     8021     8022 1
    5968     2009     2010 1
    5969     6266     6267 1
    5970     1249     1250 1
    5971    10802    10803 1
    5972     1681     1682 1
    5973    10613    10614 1
    5974    10883    10884 1
    5975    10775    10776 1
    5976     1203     1204 1
    5977     6938     6940 1
    5978     6695     6697 1
    5979     8936     8938 1
    5980     8774     8776 1
    5981     9635     9637 1
    5982    11903    11905 1
    5983     9824     9826 1
    5984    10067    10069 1
    5985    11390    11392 1
    5986     1616     1617 1
    5987     1184     1185 1
    5988      860      861 1
    5989      647      648 1
    5990     4634     4635 1
    5991     4586     4587 1
    5992     1397     1398 1
    5993     3690     3689 1
    5994     9473     9474 1
    5995     1801     1802 1
    5996      943      944 1
    5997     1705     1706 1
    5998     2133     2134 1
    5999     2070     2071 1
    6000     6230     6232 1
    6001     8165     8167 1
    6002     3006     3007 1
    6003     5873     5875 1
    6004     1438     1417 1
    6005      100      101 1
    6006    11264    11266 1
    6007     9752     9754 1
    6008     9914     9916 1
    6009    11669    11671 1
    6010     3500     3501 1
    6011     6899     6900 1
    6012     8438     8439 1
    6013     4541     4542 1
    6014     3414     3415 1
    6015      840      841 1
    6016      729      730 1
    6017      742      743 1
    6018     1075     1076 1
    6019      964      965 1
    6020      714      715 1
    6021      606      607 1
    6022     1903     1904 1
    6023     3182     3183 1
    6024     1445     1446 1
    6025     8177     8178 1
    6026     5018     5019 1
    6027     8015     8016 1
    6028     5342     5343 1
    6029        8        9 1
    6030     7853     7854 1
    6031     6260     6261 1
    6032     3149     3150 1
    6033      443      444 1
    6034     2399     2400 1
    6035       41       42 1
    6036     2093     2094 1
    6037     9638     9639 1
    6038    11393    11394 1
    6039      861      862 1
    6040    10853    10854 1
    6041     1086     1087 1
    6042     3923     3924 1
    6043     3562     3563 1
    6044    11015    11016 1
    6045      769      770 1
    6046     1309     1310 1
    6047      985      986 1
    6048     2983     2984 1
    6049    11435    11437 1
    6050     1796     1785 1
    6051     2169     2170 1
    6052     1247     1248 1
    6053     3470     3472 1
    6054     1088     1090 1
    6055    10508    10509 1
    6056    10589    10590 1
    6057    10427    10428 1
    6058     3295     3296 1
    6059     3073     3074 1
    6060     3844     3845 1
    6061     3978     3979 1
    6062     3798     3799 1
    6063     3909     3910 1
    6064     2511     2512 1
    6065     8423     8424 1
    6066     4231     4232 1
    6067     8342     8343 1
    6068     5507     5508 1
    6069      878      879 1
    6070     4649     4651 1
    6071     4550     4551 1
    6072     7040     7042 1
    6073     5930     5932 1
    6074     2231     2232 1
    6075     3651     3654 1
    6076     3759     3762 1
    6077       56       58 1
    6078     5849     5850 1
    6079     9428     9429 1
    6080     3865     3866 1
    6081    10619    10621 1
    6082    11294    11296 1
    6083    10781    10783 1
    6084     1358     1359 1
    6085      386      387 1
    6086      777      778 1
    6087     3985     3986 1
    6088     3401     3402 1
    6089     2438     2439 1
    6090     1384     1385 1
    6091     1708     1709 1
    6092     2642     2643 1
    6093     1040     1041 1
    6094      932      933 1
    6095      792      793 1
    6096     6029     6030 1
    6097      122      123 1
    6098     3362     3363 1
    6099     7091     7093 1
    6100      628      607 1
    6101     2923     2924 1
    6102     3679     3680 1
    6103     2917     2918 1
    6104     1200     1201 1
    6105     4166     4167 1
    6106     4256     4257 1
    6107     2976     2977 1
    6108     4346     4347 1
    6109     6884     6886 1
    6110     4913     4915 1
    6111     2186     2187 1
    6112     5486     5488 1
    6113     6404     6406 1
    6114     7403     7405 1
    6115     8159     8161 1
    6116     9482     9484 1
    6117     9158     9160 1
    6118     7241     7243 1
    6119    10529    10531 1
    6120    10907    10909 1
    6121    10367    10369 1
    6122     4562     4564 1
    6123     1406     1408 1
    6124     1316     1317 1
    6125     3040     3041 1
    6126     2617     2618 1
    6127     2109     2110 1
    6128    10925    10927 1
    6129    11519    11521 1
    6130    11357    11359 1
    6131     7535     7536 1
    6132     1062     1064 1
    6133     1830     1831 1
    6134     8942     8943 1
    6135     8780     8781 1
    6136     6701     6702 1
    6137     6944     6945 1
    6138     9380     9381 1
    6139     8897     8898 1
    6140     1142     1145 1
    6141    10889    10890 1
    6142     1407     1408 1
    6143    10565    10566 1
    6144    10646    10647 1
    6145     1811     1812 1
    6146    10322    10323 1
    6147    10484    10485 1
    6148     2108     2107 1
    6149     4331     4330 1
    6150    10808    10809 1
    6151     8378     8380 1
    6152     8297     8299 1
    6153     6029     6031 1
    6154     5273     5275 1
    6155     7946     7948 1
    6156     8729     8731 1
    6157     8648     8650 1
    6158     8216     8218 1
    6159     6110     6112 1
    6160     6461     6463 1
    6161      961      962 1
    6162      748      749 1
    6163     2318     2319 1
    6164     7808     7810 1
    6165      107      108 1
    6166     2658     2637 1
    6167     2144     2145 1
    6168     3031     3032 1
    6169     3457     3458 1
    6170      699      700 1
    6171      768      769 1
    6172     2920     2921 1
    6173     2335     2336 1
    6174      583      584 1
    6175     9377     9379 1
    6176     8381     8382 1
    6177     9056     9057 1
    6178     6815     6816 1
    6179     8894     8895 1
    6180     7139     7140 1
    6181     8219     8220 1
    6182    11330    11331 1
    6183     1898     1899 1
    6184     1557     1558 1
    6185     3270     3271 1
    6186     3159     3160 1
    6187     2934     2935 1
    6188     3045     3046 1
    6189      555      557 1
    6190    11909    11911 1
    6191     9830     9832 1
    6192    10073    10075 1
    6193     1987     1988 1
    6194      630      631 1
    6195     4847     4849 1
    6196     9356     9358 1
    6197     7520     7522 1
    6198     7358     7360 1
    6199    10793    10795 1
    6200     4685     4687 1
    6201    10631    10633 1
    6202     4445     4447 1
    6203     3600     3601 1
    6204     8282     8284 1
    6205     6203     6205 1
    6206     7799     7801 1
    6207    10892    10894 1
    6208    10811    10813 1
    6209      614      615 1
    6210      827      828 1
    6211     2712     2691 1
    6212     2375     2376 1
    6213     3024     3025 1
    6214     2487     2488 1
    6215     2490     2491 1
    6216     2420     2421 1
    6217     3944     3945 1
    6218     1661     1662 1
    6219     1448     1449 1
    6220     3983     3982 1
    6221     6866     6867 1
    6222     1930     1931 1
    6223     1611     1612 1
    6224     6131     6132 1
    6225     2254     2255 1
    6226     8048     8049 1
    6227     5375     5376 1
    6228     5294     5295 1
    6229     1363     1364 1
    6230     6050     6051 1
    6231     8129     8130 1
    6232     6293     6294 1
    6233     3025     3026 1
    6234     2275     2276 1
    6235     1332     1334 1
    6236     1581     1583 1
    6237     4397     4398 1
    6238     9749     9750 1
    6239    11666    11667 1
    6240     9911     9912 1
    6241      817      818 1
    6242    10748    10749 1
    6243     4574     4576 1
    6244     4287     4288 1
    6245     4377     4378 1
    6246     1791     1792 1
    6247    11417    11419 1
    6248     1795     1794 1
    6249     1613     1614 1
    6250     2082     2083 1
    6251      680      681 1
    6252     1070     1071 1
    6253      320      321 1
    6254      383      384 1
    6255     2159     2160 1
    6256     1069     1068 1
    6257      424      423 1
    6258     3874     3877 1
    6259     1081     1084 1
    6260    10817    10819 1
    6261    10898    10900 1
    6262     9800     9801 1
    6263      691      692 1
    6264     2040     2029 1
    6265     2148     2149 1
    6266      935      936 1
    6267     8060     8061 1
    6268     5387     5388 1
    6269     1857     1856 1
    6270     8021     8023 1
    6271     5348     5350 1
    6272     8183     8185 1
    6273       14       15 1
    6274     6266     6268 1
    6275     1250     1253 1
    6276    10508    10510 1
    6277    10589    10591 1
    6278     1782     1771 1
    6279    10427    10429 1
    6280     3852     3853 1
    6281     2179     2180 1
    6282     5627     5629 1
    6283     3313     3314 1
    6284     3232     3233 1
    6285     7682     7683 1
    6286     3640     3641 1
    6287     7763     7764 1
    6288     4928     4929 1
    6289     2773     2774 1
    6290     5009     5010 1
    6291     2984     2985 1
    6292     9518     9519 1
    6293     5684     5685 1
    6294    10730    10732 1
    6295     9227     9228 1
    6296     7310     7311 1
    6297     7550     7551 1
    6298      996      997 1
    6299      115      116 1
    6300     9284     9285 1
    6301      636      635 1
    6302     9203     9204 1
    6303       69       70 1
    6304     9122     9123 1
    6305     7286     7287 1
    6306     2732     2731 1
    6307     2933     2932 1
    6308     1920     1921 1
    6309    10583    10584 1
    6310    10502    10503 1
    6311    10421    10422 1
    6312     4100     4089 1
    6313      870      871 1
    6314     3172     3173 1
    6315     5804     5806 1
    6316    10643    10644 1
    6317    10562    10563 1
    6318     4628     4629 1
    6319     9941     9942 1
    6320    10022    10023 1
    6321    11939    11940 1
    6322    10103    10104 1
    6323     1318     1317 1
    6324    10319    10320 1
    6325     2644     2645 1
    6326      912      913 1
    6327     1023     1024 1
    6328     3517     3518 1
    6329     4010     4011 1
    6330     3694     3695 1
    6331     3547     3548 1
    6332     4619     4621 1
    6333    10169    10170 1
    6334    10007    10008 1
    6335    11843    11844 1
    6336      454      455 1
    6337      343      344 1
    6338     8438     8440 1
    6339     4541     4543 1
    6340     6899     6901 1
    6341     2614     2615 1
    6342    12005    12006 1
    6343     5870     5872 1
    6344     2782     2781 1
    6345     9521     9523 1
    6346     5342     5344 1
    6347     8015     8017 1
    6348     8177     8179 1
    6349        8       10 1
    6350     7853     7855 1
    6351     6260     6262 1
    6352     5018     5020 1
    6353     4493     4495 1
    6354     2630     2631 1
    6355     2847     2848 1
    6356     2801     2802 1
    6357      839      840 1
    6358     2984     2986 1
    6359     8837     8839 1
    6360     1041     1043 1
    6361      283      304 1
    6362     9863     9865 1
    6363    11780    11782 1
    6364    10943    10945 1
    6365     9059     9061 1
    6366     2453     2454 1
    6367     3527     3528 1
    6368     3104     3105 1
    6369     6365     6366 1
    6370     4856     4858 1
    6371     3215     3216 1
    6372     2753     2754 1
    6373     1600     1579 1
    6374     4080     4081 1
    6375     2390     2391 1
    6376     2638     2639 1
    6377     4625     4626 1
    6378     3578     3579 1
    6379     1523     1524 1
    6380     5363     5365 1
    6381     5768     5770 1
    6382     6362     6364 1
    6383     8036     8038 1
    6384     6200     6202 1
    6385     5687     5689 1
    6386     8279     8281 1
    6387     8117     8119 1
    6388     4080     4079 1
    6389     4931     4933 1
    6390    10532    10533 1
    6391     1141     1142 1
    6392     1095     1096 1
    6393    10370    10371 1
    6394    10721    10722 1
    6395      709      710 1
    6396     4194     4195 1
    6397     4994     4996 1
    6398     7748     7750 1
    6399     1336     1337 1
    6400       12       13 1
    6401     7667     7669 1
    6402     5669     5671 1
    6403     5750     5752 1
    6404     1561     1562 1
    6405     5912     5914 1
    6406     9503     9505 1
    6407     6016     6014 1
    6408     2051     2052 1
    6409     8495     8496 1
    6410    11987    11989 1
    6411     5822     5823 1
    6412     5066     5067 1
    6413     8306     8307 1
    6414    11825    11827 1
    6415     8657     8658 1
    6416     6227     6228 1
    6417     9989     9991 1
    6418     7577     7578 1
    6419     3550     3553 1
    6420      193      194 1
    6421     4820     4821 1
    6422     8315     8317 1
    6423     1737     1736 1
    6424     1278     1280 1
    6425     3529     3528 1
    6426      223      224 1
    6427     3277     3276 1
    6428    11267    11268 1
    6429    10187    10188 1
    6430    10349    10350 1
    6431      440      441 1
    6432     6413     6414 1
    6433     8654     8655 1
    6434     5495     5496 1
    6435     8276     8277 1
    6436     7790     7791 1
    6437     6197     6198 1
    6438     8492     8493 1
    6439     6359     6360 1
    6440     3016     3017 1
    6441     5873     5874 1
    6442     9569     9571 1
    6443     5615     5616 1
    6444     3734     3735 1
    6445     3185     3186 1
    6446     5621     5623 1
    6447     9815     9816 1
    6448     9977     9978 1
    6449     9572     9573 1
    6450    11813    11814 1
    6451    11570    11571 1
    6452    11651    11652 1
    6453     9734     9735 1
    6454     2062     2063 1
    6455     3346     3347 1
    6456     2266     2267 1
    6457     3028     3029 1
    6458     2141     2142 1
    6459     5600     5601 1
    6460     7193     7194 1
    6461     9272     9273 1
    6462     7436     7437 1
    6463     4763     4764 1
    6464     9434     9435 1
    6465     7598     7599 1
    6466     8735     8736 1
    6467     8018     8019 1
    6468     5345     5346 1
    6469     6344     6345 1
    6470     4321     4322 1
    6471     6182     6183 1
    6472     8180     8181 1
    6473     6263     6264 1
    6474     8261     8262 1
    6475     8099     8100 1
    6476     3701     3702 1
    6477    11279    11281 1
    6478    10199    10201 1
    6479     9929     9931 1
    6480    10361    10363 1
    6481     9767     9769 1
    6482     2684     2685 1
    6483     3008     3009 1
    6484    11684    11686 1
    6485    10766    10768 1
    6486    11528    11530 1
    6487     4216     4217 1
    6488     9650     9652 1
    6489     9758     9760 1
    6490     9920     9922 1
    6491    11270    11272 1
    6492    11675    11677 1
    6493    11405    11407 1
    6494     1271     1272 1
    6495     4143     4132 1
    6496    12053    12054 1
    6497     2313     2312 1
    6498     4067     4066 1
    6499     5420     5421 1
    6500     8795     8796 1
    6501     1644     1645 1
    6502     1762     1763 1
    6503     1926     1927 1
    6504     7685     7686 1
    6505     9221     9223 1
    6506      579      580 1
    6507     8372     8373 1
    6508     8615     8616 1
    6509     8453     8454 1
    6510     6536     6537 1
    6511     8210     8211 1
    6512      175      176 1
    6513     6374     6375 1
    6514      642      643 1
    6515     1716     1717 1
    6516     9494     9495 1
    6517     4670     4672 1
    6518     2194     2196 1
    6519      916      917 1
    6520     8639     8641 1
    6521     6371     6373 1
    6522     8612     8614 1
    6523    10283    10285 1
    6524    11633    11635 1
    6525     9554     9556 1
    6526    11795    11797 1
    6527     8477     8479 1
    6528     9716     9718 1
    6529    10445    10447 1
    6530     7932     7931 1
    6531     4013     4014 1
    6532     3691     3692 1
    6533     1381     1382 1
    6534      508      509 1
    6535     3796     3797 1
    6536     2722     2723 1
    6537     3157     3158 1
    6538      776      777 1
    6539     1649     1650 1
    6540    10775    10777 1
    6541     9926     9928 1
    6542     9764     9766 1
    6543     9656     9658 1
    6544    11681    11683 1
    6545    11411    11413 1
    6546     5816     5818 1
    6547      694      695 1
    6548     1417     1416 1
    6549     7307     7309 1
    6550     5117     5119 1
    6551     6305     6306 1
    6552     5375     5377 1
    6553     6131     6133 1
    6554     2254     2256 1
    6555     8048     8050 1
    6556      103      104 1
    6557     5294     5296 1
    6558     6050     6052 1
    6559      208      209 1
    6560     8129     8131 1
    6561      386      389 1
    6562     1358     1361 1
    6563    10103    10105 1
    6564     9941     9943 1
    6565     4628     4630 1
    6566    10022    10024 1
    6567    10562    10564 1
    6568    10643    10645 1
    6569     4217     4218 1
    6570    10319    10321 1
    6571     3780     3781 1
    6572    11939    11941 1
    6573     4523     4524 1
    6574     9527     9528 1
    6575     5621     5622 1
    6576     2018     2017 1
    6577     2185     2186 1
    6578     1872     1873 1
    6579     2658     2659 1
    6580     3274     3276 1
    6581     1678     1679 1
    6582     1806     1807 1
    6583     1476     1477 1
    6584     1488     1489 1
    6585     1183     1184 1
    6586      837      838 1
    6587       11       12 1
    6588      310      311 1
    6589      402      403 1
    6590      670      671 1
    6591     4961     4962 1
    6592     1072     1073 1
    6593      859      860 1
    6594     1565     1566 1
    6595     2978     2979 1
    6596     1906     1907 1
    6597     8366     8367 1
    6598     8609     8610 1
    6599     6368     6369 1
    6600     8447     8448 1
    6601     6530     6531 1
    6602     8204     8205 1
    6603       32       33 1
    6604     2538     2539 1
    6605     9152     9154 1
    6606     9626     9627 1
    6607      359      360 1
    6608    10004    10005 1
    6609    11705    11706 1
    6610    11543    11544 1
    6611     9788     9789 1
    6612    10166    10167 1
    6613    10610    10611 1
    6614     9530     9531 1
    6615    11609    11610 1
    6616     9881     9882 1
    6617     1122     1123 1
    6618      654      655 1
    6619     9692     9693 1
    6620    11960    11961 1
    6621     9932     9933 1
    6622    11444    11445 1
    6623    10850    10851 1
    6624    11012    11013 1
    6625    10094    10095 1
    6626     9002     9004 1
    6627     7841     7843 1
    6628     6086     6088 1
    6629     8840     8842 1
    6630     5168     5170 1
    6631    11114    11115 1
    6632     9590     9591 1
    6633    11183    11184 1
    6634    11075    11076 1
    6635     2737     2738 1
    6636     2242     2243 1
    6637      366      367 1
    6638     1554     1555 1
    6639     9039     9038 1
    6640     8114     8115 1
    6641     3009     3010 1
    6642     1541     1542 1
    6643      779      780 1
    6644     1205     1206 1
    6645      770      771 1
    6646     5684     5686 1
    6647     7763     7765 1
    6648     4928     4930 1
    6649     5009     5011 1
    6650     7682     7684 1
    6651     9518     9520 1
    6652     5927     5929 1
    6653     4263     4264 1
    6654     4353     4354 1
    6655     5765     5767 1
    6656     4625     4627 1
    6657     4526     4527 1
    6658     7310     7312 1
    6659     9227     9229 1
    6660     3337     3338 1
    6661     2560     2559 1
    6662     9284     9286 1
    6663     9203     9205 1
    6664     9122     9124 1
    6665     7286     7288 1
    6666     9458     9459 1
    6667     3773     3774 1
    6668     1569     1570 1
    6669      293      294 1
    6670      466      445 1
    6671     3429     3430 1
    6672      219      220 1
    6673     2703     2704 1
    6674     3135     3136 1
    6675     2598     2599 1
    6676     3106     3107 1
    6677     3856     3857 1
    6678     3706     3708 1
    6679      116      118 1
    6680      900      901 1
    6681      824      825 1
    6682     1148     1149 1
    6683      576      577 1
    6684     3502     3503 1
    6685     3254     3255 1
    6686     6416     6418 1
    6687     5498     5500 1
    6688     1032     1033 1
    6689     6455     6456 1
    6690     7415     7417 1
    6691     7253     7255 1
    6692     9170     9172 1
    6693     8291     8292 1
    6694     5456     5457 1
    6695     6212     6213 1
    6696     1816     1817 1
    6697     2914     2915 1
    6698     1398     1399 1
    6699     6893     6894 1
    6700     5030     5031 1
    6701     8432     8433 1
    6702     7865     7866 1
    6703     4703     4705 1
    6704     7646     7648 1
    6705     4946     4948 1
    6706     4784     4786 1
    6707     7457     7459 1
    6708     5810     5812 1
    6709     5729     5731 1
    6710     7565     7567 1
    6711     7376     7378 1
    6712     5054     5056 1
    6713     7361     7362 1
    6714    11636    11638 1
    6715     7523     7524 1
    6716     4688     4689 1
    6717    11474    11476 1
    6718    11150    11152 1
    6719     9557     9559 1
    6720     9359     9360 1
    6721    11798    11800 1
    6722     9719     9721 1
    6723     5417     5419 1
    6724     3735     3736 1
    6725     4030     4029 1
    6726     2198     2197 1
    6727     2005     2006 1
    6728    11870    11872 1
    6729    10250    10252 1
    6730    10358    10360 1
    6731    11789    11791 1
    6732     9872     9874 1
    6733    10196    10198 1
    6734    10277    10279 1
    6735    10412    10414 1
    6736     6365     6367 1
    6737    10736    10738 1
    6738      401      400 1
    6739     1735     1736 1
    6740     4028     4029 1
    6741     1703     1702 1
    6742     2951     2952 1
    6743     8483     8484 1
    6744     8618     8619 1
    6745     6377     6378 1
    6746     8645     8646 1
    6747     8807     8808 1
    6748     8456     8457 1
    6749     6539     6540 1
    6750     7142     7143 1
    6751     8954     8955 1
    6752     2190     2191 1
    6753     4427     4428 1
    6754     9539     9540 1
    6755     9701     9702 1
    6756    11618    11619 1
    6757    10052    10053 1
    6758    10214    10215 1
    6759     3526     3527 1
    6760     3001     3002 1
    6761     3751     3752 1
    6762     2665     2666 1
    6763     3214     3215 1
    6764     9773     9774 1
    6765     7370     7371 1
    6766     4805     4806 1
    6767     5123     5124 1
    6768     5879     5880 1
    6769     7148     7149 1
    6770     1647     1648 1
    6771    10517    10518 1
    6772    11597    11598 1
    6773     1719     1720 1
    6774     2228     2229 1
    6775     1973     1974 1
    6776     1795     1796 1
    6777     4148     4149 1
    6778     1076     1077 1
    6779     9386     9387 1
    6780     1642     1641 1
    6781     1563     1564 1
    6782     2332     2333 1
    6783     2286     2287 1
    6784     2937     2938 1
    6785     3048     3049 1
    6786     2533     2534 1
    6787     5070     5069 1
    6788     3810     3811 1
    6789     3406     3407 1
    6790      801      802 1
    6791      517      518 1
    6792     9857     9859 1
    6793    11774    11776 1
    6794     2105     2106 1
    6795    10937    10939 1
    6796     2052     2053 1
    6797     2015     2016 1
    6798    10601    10602 1
    6799    10520    10521 1
    6800     9845     9846 1
    6801    11924    11925 1
    6802    10088    10089 1
    6803     5495     5497 1
    6804     8654     8656 1
    6805     8816     8818 1
    6806     7790     7792 1
    6807     6197     6199 1
    6808     8492     8494 1
    6809     6359     6361 1
    6810     8114     8116 1
    6811     8276     8278 1
    6812    10253    10255 1
    6813    10415    10417 1
    6814     4679     4680 1
    6815     4439     4440 1
    6816     1373     1374 1
    6817     3543     3546 1
    6818     8063     8064 1
    6819     5390     5391 1
    6820     2356     2358 1
    6821     5513     5514 1
    6822     4352     4341 1
    6823     4262     4251 1
    6824     2338     2339 1
    6825     4002     3991 1
    6826     1909     1898 1
    6827     1998     1999 1
    6828     1503     1502 1
    6829     1392     1391 1
    6830     2088     2089 1
    6831      105      104 1
    6832     2402     2403 1
    6833     3257     3258 1
    6834    10559    10560 1
    6835    10316    10317 1
    6836    10640    10641 1
    6837      663      664 1
    6838    10478    10479 1
    6839     4262     4263 1
    6840     4258     4259 1
    6841     4168     4169 1
    6842     4141     4142 1
    6843     4284     4285 1
    6844     4374     4375 1
    6845     4348     4349 1
    6846     4352     4353 1
    6847    10229    10231 1
    6848    10391    10393 1
    6849     3064     3066 1
    6850     5854     5852 1
    6851     1787     1788 1
    6852     4146     4147 1
    6853     4892     4894 1
    6854     3572     3573 1
    6855     2699     2700 1
    6856     9713     9714 1
    6857     9551     9552 1
    6858    11846    11847 1
    6859     1918     1919 1
    6860     1615     1616 1
    6861    11630    11631 1
    6862    12008    12009 1
    6863     4076     4077 1
    6864     9440     9441 1
    6865     5420     5422 1
    6866     8795     8797 1
    6867     3576     3555 1
    6868     6821     6822 1
    6869     7145     7146 1
    6870     8372     8374 1
    6871     8615     8617 1
    6872     8453     8455 1
    6873     6536     6538 1
    6874     8210     8212 1
    6875     6374     6376 1
    6876     9590     9592 1
    6877    11183    11185 1
    6878    11075    11077 1
    6879     3321     3322 1
    6880     1257     1259 1
    6881      328      329 1
    6882     7304     7305 1
    6883     2708     2707 1
    6884     1800     1801 1
    6885      405      406 1
    6886     1704     1705 1
    6887     4052     4053 1
    6888     3287     3289 1
    6889     6011     6012 1
    6890     2237     2236 1
    6891     2954     2953 1
    6892     7988     7989 1
    6893     5315     5316 1
    6894     8420     8421 1
    6895     6233     6234 1
    6896    10934    10935 1
    6897     1389     1390 1
    6898    11258    11259 1
    6899      426      427 1
    6900    11309    11310 1
    6901    10985    10986 1
    6902    11066    11067 1
    6903     2443     2444 1
    6904    10424    10425 1
    6905     6308     6310 1
    6906     7085     7087 1
    6907     1902     1903 1
    6908      196      197 1
    6909      598      595 1
    6910     8621     8623 1
    6911     6218     6220 1
    6912      546      545 1
    6913     2020     2021 1
    6914     2606     2608 1
    6915     2930     2932 1
    6916     1508     1509 1
    6917     1295     1296 1
    6918     1253     1254 1
    6919     1056     1055 1
    6920     2650     2651 1
    6921     1230     1231 1
    6922     3375     3376 1
    6923     3697     3698 1
    6924     8168     8169 1
    6925     4085     4086 1
    6926    11438    11439 1
    6927     9899     9900 1
    6928    11978    11979 1
    6929     2055     2044 1
    6930     4961     4963 1
    6931     6275     6277 1
    6932     2822     2823 1
    6933     8609     8611 1
    6934     2389     2390 1
    6935     8366     8368 1
    6936     6368     6370 1
    6937     3686     3687 1
    6938     6530     6532 1
    6939     8447     8449 1
    6940     8204     8206 1
    6941     4306     4307 1
    6942     3524     3526 1
    6943     2660     2662 1
    6944     4012     4013 1
    6945     5969     5971 1
    6946     3662     3663 1
    6947     3993     3994 1
    6948     3426     3427 1
    6949     2346     2347 1
    6950     6740     6741 1
    6951      125      126 1
    6952      698      699 1
    6953     3600     3598 1
    6954     2160     2161 1
    6955     2882     2883 1
    6956     3992     3993 1
    6957     3425     3426 1
    6958     8147     8148 1
    6959     1930     1929 1
    6960      201      202 1
    6961       27       28 1
    6962     7037     7039 1
    6963     8387     8389 1
    6964     9116     9118 1
    6965     6875     6877 1
    6966     8225     8227 1
    6967    11585    11586 1
    6968      601      602 1
    6969     4314     4315 1
    6970     4550     4552 1
    6971     2497     2496 1
    6972     2235     2236 1
    6973     9314     9316 1
    6974     1922     1911 1
    6975     7676     7677 1
    6976     8918     8919 1
    6977     6722     6724 1
    6978     5759     5760 1
    6979     8999     9000 1
    6980     7757     7758 1
    6981     3411     3412 1
    6982     4922     4923 1
    6983     5921     5922 1
    6984     5071     5069 1
    6985    10313    10315 1
    6986     6998     7000 1
    6987     8240     8242 1
    6988     5405     5407 1
    6989     7160     7162 1
    6990     6161     6163 1
    6991     5999     6001 1
    6992     4958     4959 1
    6993     7469     7470 1
    6994    10514    10515 1
    6995     4796     4797 1
    6996    10595    10596 1
    6997     7388     7389 1
    6998     5552     5553 1
    6999     1270     1271 1
    7000     4715     4716 1
    7001    10433    10434 1
    7002     2578     2581 1
    7003     2623     2624 1
    7004     3116     3117 1
    7005     2061     2062 1
    7006     1774     1775 1
    7007     3064     3067 1
    7008     5678     5679 1
    7009     6674     6675 1
    7010     8591     8592 1
    7011     8672     8673 1
    7012     8753     8754 1
    7013     6917     6918 1
    7014     6755     6756 1
    7015     6836     6837 1
    7016      719      720 1
    7017     1805     1806 1
    7018      503      504 1
    7019     8291     8293 1
    7020     6455     6457 1
    7021     5456     5458 1
    7022     6212     6214 1
    7023    11159    11160 1
    7024    11483    11484 1
    7025    11240    11241 1
    7026     2852     2853 1
    7027     1520     1521 1
    7028     5030     5032 1
    7029     6893     6895 1
    7030     8432     8434 1
    7031     7865     7867 1
    7032      538      539 1
    7033      427      428 1
    7034     4299     4300 1
    7035      676      677 1
    7036     1390     1391 1
    7037     1177     1178 1
    7038     1501     1502 1
    7039     5723     5724 1
    7040     1025     1026 1
    7041    11381    11382 1
    7042      332      335 1
    7043     3374     3375 1
    7044       38       39 1
    7045     1631     1632 1
    7046     9977     9979 1
    7047    11570    11572 1
    7048     9572     9574 1
    7049     9815     9817 1
    7050    11813    11815 1
    7051     9734     9736 1
    7052    11651    11653 1
    7053     3975     3964 1
    7054     3195     3196 1
    7055     1737     1738 1
    7056     2721     2720 1
    7057      167      168 1
    7058     1172     1173 1
    7059     1815     1816 1
    7060     7031     7032 1
    7061     9299     9300 1
    7062     9110     9111 1
    7063     9137     9138 1
    7064     6869     6870 1
    7065      784      783 1
    7066      987      989 1
    7067      673      672 1
    7068     6656     6657 1
    7069     7316     7317 1
    7070     9233     9234 1
    7071     9071     9072 1
    7072    10874    10876 1
    7073    11036    11038 1
    7074    11117    11119 1
    7075     5123     5125 1
    7076     7148     7150 1
    7077     5879     5881 1
    7078     4463     4464 1
    7079     1555     1556 1
    7080     3175     3176 1
    7081     1029     1030 1
    7082     1274     1275 1
    7083    12026    12027 1
    7084     3057     3060 1
    7085     3534     3535 1
    7086      379      382 1
    7087     7496     7497 1
    7088     5630     5632 1
    7089     2348     2349 1
    7090     3611     3613 1
    7091     3311     3312 1
    7092      809      810 1
    7093      152      153 1
    7094      797      798 1
    7095     4706     4707 1
    7096     7298     7299 1
    7097     3260     3261 1
    7098     5807     5808 1
    7099     5051     5052 1
    7100     5726     5727 1
    7101     7562     7563 1
    7102     7805     7806 1
    7103     4544     4545 1
    7104     7643     7644 1
    7105     5645     5646 1
    7106     3782     3783 1
    7107     2602     2603 1
    7108     2491     2492 1
    7109     9587     9588 1
    7110      925      926 1
    7111    11180    11181 1
    7112     1574     1575 1
    7113     2007     2008 1
    7114     1943     1944 1
    7115     5291     5293 1
    7116     1237     1238 1
    7117     5372     5374 1
    7118     6047     6049 1
    7119     2632     2634 1
    7120     8045     8047 1
    7121     8126     8128 1
    7122     6290     6292 1
    7123      364      365 1
    7124     6128     6130 1
    7125     4909     4907 1
    7126     8581     8579 1
    7127     2076     2077 1
    7128     1207     1206 1
    7129     6515     6517 1
    7130     9149     9150 1
    7131     1726     1725 1
    7132     3655     3656 1
    7133     1261     1262 1
    7134      940      941 1
    7135    11819    11820 1
    7136    11306    11307 1
    7137      397      398 1
    7138     9983     9984 1
    7139    11576    11577 1
    7140     1051     1052 1
    7141    11657    11658 1
    7142      409      410 1
    7143     9740     9741 1
    7144     2961     2962 1
    7145     3607     3608 1
    7146       69       71 1
    7147     4157     4146 1
    7148    11675    11676 1
    7149     4218     4219 1
    7150     9380     9382 1
    7151     2154     2155 1
    7152    11378    11380 1
    7153      382      383 1
    7154     3506     3507 1
    7155     7637     7638 1
    7156     7556     7557 1
    7157     9230     9231 1
    7158     7394     7395 1
    7159     5801     5802 1
    7160     7313     7314 1
    7161     5045     5046 1
    7162     9068     9069 1
    7163     5639     5640 1
    7164     4802     4803 1
    7165    10841    10842 1
    7166     1331     1332 1
    7167      666      667 1
    7168     9680     9681 1
    7169    10679    10680 1
    7170    11759    11760 1
    7171     1580     1581 1
    7172     3269     3270 1
    7173     2933     2934 1
    7174     9746     9747 1
    7175     9908     9909 1
    7176     9665     9666 1
    7177    11744    11745 1
    7178    11663    11664 1
    7179     4211     4212 1
    7180    11282    11283 1
    7181     9626     9628 1
    7182    10004    10006 1
    7183    11705    11707 1
    7184    11543    11545 1
    7185     9788     9790 1
    7186    10166    10168 1
    7187      121      122 1
    7188     5120     5122 1
    7189     6356     6358 1
    7190     5357     5359 1
    7191     7787     7789 1
    7192     8111     8113 1
    7193     8030     8032 1
    7194     8273     8275 1
    7195     6194     6196 1
    7196     5033     5035 1
    7197     8192     8194 1
    7198     5114     5116 1
    7199     6340     6338 1
    7200      332      334 1
    7201     4101     4090 1
    7202     7289     7290 1
    7203     2977     2978 1
    7204     3088     3089 1
    7205    10829    10831 1
    7206    10667    10669 1
    7207     9668     9670 1
    7208    11747    11749 1
    7209     9374     9375 1
    7210     1313     1314 1
    7211    10844    10845 1
    7212    10574    10575 1
    7213    10655    10656 1
    7214     1537     1538 1
    7215      738      739 1
    7216     1710     1711 1
    7217     1315     1316 1
    7218    10331    10332 1
    7219    10682    10683 1
    7220    10763    10764 1
    7221     2174     2175 1
    7222     1108     1109 1
    7223     2529     2530 1
    7224     3793     3794 1
    7225     7988     7990 1
    7226     6233     6235 1
    7227     8420     8422 1
    7228     5315     5317 1
    7229     3006     3004 1
    7230     4226     4227 1
    7231     2388     2389 1
    7232     3699     3700 1
    7233     5132     5134 1
    7234     3446     3447 1
    7235     2673     2674 1
    7236     3747     3748 1
    7237      717      719 1
    7238     3210     3211 1
    7239     4325     4326 1
    7240     2674     2675 1
    7241     2449     2450 1
    7242     9917     9919 1
    7243     9755     9757 1
    7244     3430     3431 1
    7245      818      819 1
    7246    11672    11674 1
    7247    10754    10756 1
    7248     5933     5934 1
    7249     8687     8688 1
    7250      277      276 1
    7251     7604     7606 1
    7252     3188     3189 1
    7253     6929     6930 1
    7254     2854     2855 1
    7255     3038     3039 1
    7256     2293     2294 1
    7257     5606     5608 1
    7258     7199     7201 1
    7259     4769     4771 1
    7260     5996     5997 1
    7261     8237     8238 1
    7262     9278     9280 1
    7263     3226     3227 1
    7264     6158     6159 1
    7265     5402     5403 1
    7266     7442     7444 1
    7267     8345     8346 1
    7268     5510     5511 1
    7269     3673     3674 1
    7270      336      337 1
    7271      984      985 1
    7272     4101     4102 1
    7273     9260     9262 1
    7274     4751     4753 1
    7275     7424     7426 1
    7276     5588     5590 1
    7277     9422     9424 1
    7278     7586     7588 1
    7279     7181     7183 1
    7280      419      420 1
    7281     1718     1719 1
    7282     6593     6595 1
    7283     7133     7135 1
    7284     6431     6433 1
    7285     8888     8890 1
    7286     9050     9052 1
    7287     6809     6811 1
    7288     8510     8512 1
    7289     7982     7983 1
    7290    11582    11584 1
    7291    11501    11503 1
    7292     5903     5904 1
    7293     5147     5148 1
    7294     2807     2808 1
    7295     4985     4986 1
    7296     4658     4660 1
    7297     3032     3033 1
    7298     3680     3681 1
    7299     2810     2811 1
    7300     3884     3885 1
    7301     2918     2919 1
    7302     2921     2922 1
    7303     4886     4888 1
    7304     1974     1975 1
    7305     2632     2635 1
    7306     9452     9453 1
    7307     8147     8149 1
    7308     1738     1739 1
    7309     6053     6054 1
    7310     5378     5379 1
    7311     8051     8052 1
    7312     5297     5298 1
    7313     8132     8133 1
    7314     6296     6297 1
    7315     6134     6135 1
    7316     6272     6274 1
    7317      976      977 1
    7318     7676     7678 1
    7319     8918     8920 1
    7320     5921     5923 1
    7321     5759     5761 1
    7322     8999     9001 1
    7323     7757     7759 1
    7324     9512     9514 1
    7325     4922     4924 1
    7326     2442     2443 1
    7327     5678     5680 1
    7328      166      164 1
    7329     1551     1552 1
    7330     9611     9612 1
    7331     2112     2113 1
    7332      354      355 1
    7333     1304     1307 1
    7334       53       54 1
    7335      849      850 1
    7336     1116     1118 1
    7337     1131     1132 1
    7338      222      223 1
    7339    10517    10519 1
    7340    11597    11599 1
    7341     2331     2332 1
    7342     7379     7381 1
    7343     4814     4816 1
    7344     1786     1787 1
    7345      317      318 1
    7346     6437     6438 1
    7347     6518     6519 1
    7348     8516     8517 1
    7349     6599     6600 1
    7350     1119     1120 1
    7351     8094     8093 1
    7352      807      808 1
    7353     3264     3265 1
    7354     2289     2290 1
    7355      887      888 1
    7356    11492    11493 1
    7357    11168    11169 1
    7358    11816    11817 1
    7359     1192     1189 1
    7360    10952    10953 1
    7361    11276    11277 1
    7362    11654    11655 1
    7363     9737     9738 1
    7364     9575     9576 1
    7365     9605     9607 1
    7366    11198    11200 1
    7367     1654     1655 1
    7368     1866     1855 1
    7369      509      510 1
    7370      296      297 1
    7371    10082    10083 1
    7372     4341     4342 1
    7373     4251     4252 1
    7374     3204     3205 1
    7375     3315     3316 1
    7376     9704     9705 1
    7377      822      821 1
    7378     4172     4161 1
    7379     3857     3858 1
    7380     4001     4002 1
    7381     7958     7959 1
    7382     6392     6393 1
    7383     9416     9417 1
    7384     8336     8337 1
    7385     2558     2559 1
    7386     2447     2448 1
    7387     5582     5583 1
    7388     5960     5961 1
    7389     3620     3621 1
    7390     3731     3732 1
    7391      459      460 1
    7392     1655     1656 1
    7393     9107     9108 1
    7394     7568     7569 1
    7395     3522     3501 1
    7396     8939     8940 1
    7397     6698     6699 1
    7398     3334     3335 1
    7399     8777     8778 1
    7400     6941     6942 1
    7401     4385     4386 1
    7402     2695     2696 1
    7403     1034     1036 1
    7404    10208    10209 1
    7405    10046    10047 1
    7406     8792     8794 1
    7407     3624     3625 1
    7408     3078     3079 1
    7409     1797     1786 1
    7410     5225     5226 1
    7411     4400     4402 1
    7412    11876    11878 1
    7413     9608     9610 1
    7414     9770     9772 1
    7415    11525    11527 1
    7416    11687    11689 1
    7417    11714    11716 1
    7418     2683     2684 1
    7419     2480     2481 1
    7420     3455     3456 1
    7421     3677     3678 1
    7422    10523    10524 1
    7423    11603    11604 1
    7424     2085     2074 1
    7425      890      891 1
    7426     1739     1740 1
    7427     2111     2112 1
    7428     3799     3800 1
    7429      353      354 1
    7430     2512     2513 1
    7431     1427     1428 1
    7432     3586     3587 1
    7433     4115     4116 1
    7434     4022     4023 1
    7435     4139     4138 1
    7436     4318     4317 1
    7437     8141     8142 1
    7438    11405    11406 1
    7439     5726     5728 1
    7440     5807     5809 1
    7441     5051     5053 1
    7442     7562     7564 1
    7443     5645     5647 1
    7444     4808     4810 1
    7445     7805     7807 1
    7446     7964     7965 1
    7447     4544     4546 1
    7448     7643     7645 1
    7449     1625     1624 1
    7450     3351     3352 1
    7451     2595     2596 1
    7452     3564     3565 1
    7453     3925     3926 1
    7454     4868     4870 1
    7455      318      319 1
    7456     4178     4179 1
    7457     6635     6636 1
    7458     9092     9093 1
    7459     9467     9468 1
    7460     7580     7581 1
    7461     4721     4722 1
    7462     1385     1386 1
    7463     9311     9312 1
    7464     9392     9393 1
    7465     7475     7476 1
    7466     5558     5559 1
    7467     4883     4884 1
    7468       23       24 1
    7469        6        5 1
    7470     2809     2810 1
    7471     1194     1195 1
    7472    10931    10932 1
    7473    11768    11769 1
    7474     9851     9852 1
    7475     3280     3281 1
    7476     6491     6493 1
    7477     9407     9409 1
    7478     5573     5575 1
    7479     7490     7492 1
    7480     8459     8461 1
    7481     8408     8410 1
    7482     6329     6331 1
    7483     8570     8572 1
    7484     2610     2609 1
    7485     1304     1306 1
    7486      562      561 1
    7487     1278     1279 1
    7488     7244     7245 1
    7489     4523     4525 1
    7490     9629     9630 1
    7491    11708    11709 1
    7492    11546    11547 1
    7493      784      785 1
    7494     9791     9792 1
    7495      113      114 1
    7496     5801     5803 1
    7497     7556     7558 1
    7498     9230     9232 1
    7499     7637     7639 1
    7500     9068     9070 1
    7501     5045     5047 1
    7502     7313     7315 1
    7503     7394     7396 1
    7504     5639     5641 1
    7505     4802     4804 1
    7506     7655     7657 1
    7507     4093     4094 1
    7508     3386     3387 1
    7509      290      291 1
    7510     1546     1525 1
    7511     8171     8173 1
    7512     6863     6864 1
    7513     9746     9748 1
    7514    11510    11512 1
    7515    10133    10135 1
    7516    12050    12052 1
    7517    11348    11350 1
    7518     6548     6550 1
    7519     4209     4210 1
    7520     3422     3423 1
    7521     2459     2460 1
    7522      774      775 1
    7523     1598     1599 1
    7524     5948     5949 1
    7525     2510     2509 1
    7526      852      853 1
    7527     1966     1967 1
    7528    12017    12018 1
    7529     1527     1528 1
    7530      445      446 1
    7531    10262    10263 1
    7532     4526     4528 1
    7533       42       43 1
    7534     6452     6454 1
    7535     8288     8290 1
    7536     5453     5455 1
    7537     6209     6211 1
    7538     1348     1349 1
    7539     6551     6552 1
    7540     5594     5596 1
    7541     7187     7189 1
    7542     3958     3959 1
    7543     4158     4159 1
    7544     7106     7108 1
    7545     7430     7432 1
    7546     9266     9268 1
    7547     8861     8863 1
    7548     7025     7027 1
    7549     7592     7594 1
    7550    11189    11190 1
    7551     9596     9597 1
    7552    11162    11163 1
    7553    11486    11487 1
    7554    11717    11719 1
    7555     4310     4311 1
    7556    10880    10882 1
    7557    10946    10947 1
    7558    11879    11881 1
    7559     4220     4221 1
    7560     9611     9613 1
    7561      181      182 1
    7562     4114     4103 1
    7563       43       44 1
    7564     5003     5004 1
    7565     3708     3709 1
    7566     1386     1388 1
    7567      954      956 1
    7568     5933     5935 1
    7569     8687     8689 1
    7570     2365     2366 1
    7571      763      764 1
    7572      717      718 1
    7573     6704     6706 1
    7574     5138     5140 1
    7575     2411     2412 1
    7576     6323     6324 1
    7577     4973     4974 1
    7578     7970     7971 1
    7579     6485     6486 1
    7580     7484     7485 1
    7581     8402     8403 1
    7582     5567     5568 1
    7583     9401     9402 1
    7584     5891     5892 1
    7585     1740     1729 1
    7586     2045     2044 1
    7587     8522     8524 1
    7588     8237     8239 1
    7589     5996     5998 1
    7590     3226     3228 1
    7591     6158     6160 1
    7592     5402     5404 1
    7593     8345     8347 1
    7594     5510     5512 1
    7595    11564    11565 1
    7596     9971     9972 1
    7597    11375    11376 1
    7598     9809     9810 1
    7599     2086     2087 1
    7600     4043     4044 1
    7601     1996     1997 1
    7602     2597     2596 1
    7603      990      991 1
    7604      794      795 1
    7605     1667     1668 1
    7606     2125     2126 1
    7607    11381    11383 1
    7608     3294     3295 1
    7609     3519     3520 1
    7610     2167     2168 1
    7611     2142     2143 1
    7612      815      816 1
    7613     1139     1140 1
    7614      314      315 1
    7615      425      426 1
    7616      677      678 1
    7617     5708     5709 1
    7618     8003     8004 1
    7619     5789     5790 1
    7620     7625     7626 1
    7621     5411     5412 1
    7622     6167     6168 1
    7623     6005     6006 1
    7624     6248     6249 1
    7625     8246     8247 1
    7626     9461     9462 1
    7627     1984     1985 1
    7628     4427     4429 1
    7629      522      523 1
    7630      649      652 1
    7631      973      976 1
    7632     8027     8028 1
    7633     4646     4647 1
    7634     4454     4455 1
    7635     9194     9196 1
    7636     3221     3222 1
    7637     3113     3114 1
    7638     2573     2574 1
    7639    10736    10737 1
    7640     1135     1138 1
    7641     1625     1626 1
    7642     2822     2824 1
    7643     3686     3688 1
    7644     7364     7365 1
    7645     4691     4692 1
    7646     1583     1584 1
    7647      377      378 1
    7648     1589     1590 1
    7649     3833     3834 1
    7650     1451     1452 1
    7651     7811     7812 1
    7652      708      707 1
    7653     3590     3591 1
    7654     4122     4123 1
    7655      910      911 1
    7656     9017     9019 1
    7657     1585     1586 1
    7658     9179     9181 1
    7659     7262     7264 1
    7660     1447     1448 1
    7661     1672     1673 1
    7662      713      714 1
    7663     1825     1826 1
    7664     1981     1982 1
    7665     4562     4563 1
    7666     3569     3570 1
    7667     2276     2277 1
    7668      616      617 1
    7669    10037    10038 1
    7670    11954    11955 1
    7671     3658     3661 1
    7672    11387    11388 1
    7673     2696     2697 1
    7674     3583     3584 1
    7675     7958     7960 1
    7676     6392     6394 1
    7677     9416     9418 1
    7678     8336     8338 1
    7679     5582     5584 1
    7680     5960     5962 1
    7681     9224     9226 1
    7682     7190     7192 1
    7683     3383     3384 1
    7684      898      877 1
    7685     8939     8941 1
    7686     6698     6700 1
    7687     1862     1863 1
    7688     3334     3336 1
    7689     8777     8779 1
    7690     5210     5211 1
    7691     6941     6943 1
    7692     2019     2020 1
    7693      818      821 1
    7694      436      433 1
    7695     2457     2458 1
    7696     2157     2158 1
    7697     3772     3773 1
    7698     3524     3525 1
    7699     5333     5334 1
    7700     2334     2335 1
    7701     6251     6252 1
    7702     7217     7219 1
    7703     8006     8007 1
    7704      720      721 1
    7705      532      533 1
    7706     1069     1070 1
    7707      754      755 1
    7708      488      490 1
    7709     2972     2973 1
    7710     3979     3980 1
    7711      737      738 1
    7712     4829     4830 1
    7713     7340     7341 1
    7714     6584     6585 1
    7715     6422     6423 1
    7716     7502     7503 1
    7717     8501     8502 1
    7718     7235     7237 1
    7719      467      468 1
    7720     2156     2157 1
    7721    11894    11895 1
    7722    11975    11976 1
    7723     9896     9897 1
    7724    11732    11733 1
    7725     2726     2727 1
    7726    11177    11178 1
    7727      531      532 1
    7728    11069    11070 1
    7729     9584     9585 1
    7730     2848     2849 1
    7731    10841    10843 1
    7732     2308     2309 1
    7733    11759    11761 1
    7734     9680     9682 1
    7735    10679    10681 1
    7736     8381     8383 1
    7737     6815     6817 1
    7738     9056     9058 1
    7739     7139     7141 1
    7740     8219     8221 1
    7741     8894     8896 1
    7742      222      221 1
    7743    11393    11395 1
    7744     1793     1794 1
    7745     1341     1342 1
    7746     1904     1905 1
    7747     1590     1591 1
    7748      471      472 1
    7749     3153     3154 1
    7750     1452     1453 1
    7751     7595     7596 1
    7752     9641     9643 1
    7753    11396    11398 1
    7754     2315     2316 1
    7755     2361     2362 1
    7756     3287     3288 1
    7757      895      896 1
    7758     1102     1103 1
    7759     6635     6637 1
    7760     9092     9094 1
    7761     7580     7582 1
    7762      697      698 1
    7763    10772    10774 1
    7764     4721     4723 1
    7765     9311     9313 1
    7766     9392     9394 1
    7767     7475     7477 1
    7768     5558     5560 1
    7769     4883     4885 1
    7770    10475    10476 1
    7771     4511     4513 1
    7772     4583     4585 1
    7773     3693     3694 1
    7774     2838     2839 1
    7775     2474     2475 1
    7776     3885     3886 1
    7777     2916     2917 1
    7778       13       14 1
    7779    10889    10891 1
    7780    10565    10567 1
    7781    10646    10648 1
    7782    10322    10324 1
    7783    10484    10486 1
    7784    10808    10810 1
    7785     9119     9120 1
    7786      240      241 1
    7787     5279     5281 1
    7788     2422     2423 1
    7789     6956     6958 1
    7790     6821     6823 1
    7791     7145     7147 1
    7792     8696     8697 1
    7793     7022     7023 1
    7794     9101     9102 1
    7795     7103     7104 1
    7796     1605     1606 1
    7797     9062     9064 1
    7798     8900     8902 1
    7799     6860     6861 1
    7800     8858     8859 1
    7801     4191     4190 1
    7802     4094     4095 1
    7803     3983     3984 1
    7804     3378     3377 1
    7805     1302     1301 1
    7806      696      695 1
    7807     5162     5164 1
    7808     6080     6082 1
    7809     8996     8998 1
    7810     7835     7837 1
    7811     8834     8836 1
    7812     6065     6066 1
    7813     7793     7794 1
    7814    10271    10272 1
    7815     9839     9840 1
    7816    10190    10191 1
    7817     2924     2925 1
    7818     2702     2703 1
    7819     6146     6147 1
    7820     5309     5310 1
    7821     5039     5040 1
    7822     4067     4068 1
    7823      326      328 1
    7824     3566     3567 1
    7825     3788     3789 1
    7826     9461     9463 1
    7827     1884     1885 1
    7828     4862     4863 1
    7829     1170     1172 1
    7830     4121     4122 1
    7831     2683     2682 1
    7832     3439     3438 1
    7833     9185     9186 1
    7834     9023     9024 1
    7835     7268     7269 1
    7836     6386     6387 1
    7837     2355     2358 1
    7838     3206     3205 1
    7839     3317     3316 1
    7840     2056     2057 1
    7841     3318     3319 1
    7842      327      328 1
    7843    11834    11835 1
    7844     9998     9999 1
    7845     4065     4066 1
    7846    11996    11997 1
    7847     2572     2574 1
    7848     6890     6891 1
    7849    10160    10161 1
    7850     2550     2551 1
    7851     3306     3307 1
    7852     3166     3168 1
    7853     5198     5199 1
    7854     3738     3739 1
    7855      967      968 1
    7856     1028     1030 1
    7857     9470     9471 1
    7858     1431     1432 1
    7859    12056    12057 1
    7860    10139    10140 1
    7861    11867    11868 1
    7862     5660     5661 1
    7863     5966     5968 1
    7864     1384     1363 1
    7865     1747     1748 1
    7866     1744     1745 1
    7867     3238     3239 1
    7868     1302     1303 1
    7869      696      697 1
    7870     3199     3200 1
    7871     2767     2768 1
    7872     1949     1950 1
    7873      481      482 1
    7874     6155     6156 1
    7875     1679     1680 1
    7876     1992     1993 1
    7877     9083     9084 1
    7878     5735     5736 1
    7879     9245     9246 1
    7880     7328     7329 1
    7881     8732     8733 1
    7882     7814     7815 1
    7883     7652     7653 1
    7884     4817     4818 1
    7885     5765     5766 1
    7886     3196     3197 1
    7887     3397     3398 1
    7888     2974     2975 1
    7889     2323     2324 1
    7890    10127    10129 1
    7891    11504    11506 1
    7892     1858     1859 1
    7893    12044    12046 1
    7894    11342    11344 1
    7895     3262     3263 1
    7896    10547    10548 1
    7897    10142    10143 1
    7898    11222    11223 1
    7899    12059    12060 1
    7900    11384    11385 1
    7901    10385    10386 1
    7902      356      357 1
    7903    11060    11061 1
    7904     1430     1431 1
    7905     4577     4578 1
    7906     2746     2745 1
    7907     9473     9475 1
    7908     2898     2899 1
    7909     6236     6238 1
    7910    11837    11839 1
    7911    10163    10165 1
    7912    10001    10003 1
    7913    11999    12001 1
    7914     7874     7875 1
    7915     2078     2079 1
    7916     1934     1935 1
    7917     2680     2682 1
    7918      283      282 1
    7919     2777     2778 1
    7920     3995     3996 1
    7921     2888     2889 1
    7922     8120     8121 1
    7923     1314     1315 1
    7924     2666     2667 1
    7925     3539     3540 1
    7926     1013     1014 1
    7927      237      236 1
    7928     1442     1443 1
    7929      476      477 1
    7930      905      906 1
    7931      797      796 1
    7932     2325     2324 1
    7933     8702     8703 1
    7934       78       79 1
    7935     2288     2287 1
    7936     1846     1847 1
    7937     1142     1144 1
    7938     3965     3966 1
    7939     4196     4197 1
    7940     3172     3174 1
    7941     5368     5366 1
    7942     7544     7545 1
    7943     3248     3249 1
    7944     4064     4065 1
    7945     3896     3897 1
    7946    10820    10821 1
    7947    10901    10902 1
    7948     3560     3561 1
    7949     1748     1749 1
    7950     3785     3786 1
    7951     1646     1647 1
    7952     7478     7480 1
    7953     2834     2835 1
    7954     4044     4033 1
    7955    11843    11845 1
    7956    10169    10171 1
    7957    10007    10009 1
    7958    12005    12007 1
    7959     7364     7366 1
    7960     4691     4693 1
    7961     3826     3825 1
    7962     2574     2575 1
    7963     9062     9063 1
    7964      358      337 1
    7965     5231     5233 1
    7966     1894     1893 1
    7967     6317     6318 1
    7968     3984     3985 1
    7969     3600     3597 1
    7970     1848     1849 1
    7971     2350     2351 1
    7972     4108     4109 1
    7973     2563     2564 1
    7974     3859     3860 1
    7975      621      622 1
    7976      510      511 1
    7977     1803     1804 1
    7978      732      733 1
    7979     2315     2317 1
    7980     4772     4773 1
    7981     8444     8445 1
    7982     4877     4878 1
    7983     1470     1471 1
    7984     1556     1557 1
    7985      482      483 1
    7986     1061     1062 1
    7987     1602     1603 1
    7988     6773     6774 1
    7989     8528     8529 1
    7990     6881     6882 1
    7991     6611     6612 1
    7992     6962     6963 1
    7993     4403     4404 1
    7994     1687     1688 1
    7995    10607    10608 1
    7996     2740     2741 1
    7997    10877    10878 1
    7998    10796    10797 1
    7999     3523     3524 1
    8000    10769    10770 1
    8001     5600     5602 1
    8002     9272     9274 1
    8003     7436     7438 1
    8004     4763     4765 1
    8005     7193     7195 1
    8006     9434     9436 1
    8007     7598     7600 1
    8008     4697     4699 1
    8009     1685     1686 1
    8010     2014     2015 1
    8011      848      849 1
    8012     4043     4042 1
    8013    10832    10833 1
    8014    10670    10671 1
    8015    10751    10752 1
    8016     4556     4557 1
    8017     3511     3512 1
    8018     6987     6986 1
    8019     3906     3907 1
    8020     4084     4085 1
    8021     2749     2750 1
    8022     2943     2944 1
    8023     2721     2722 1
    8024     2791     2792 1
    8025    11423    11425 1
    8026     1532     1533 1
    8027     7019     7020 1
    8028     8693     8694 1
    8029     7100     7101 1
    8030      997      998 1
    8031      775      776 1
    8032     8006     8008 1
    8033     5333     5335 1
    8034     6857     6858 1
    8035     9098     9099 1
    8036     6251     6253 1
    8037     8405     8406 1
    8038     3217     3216 1
    8039     4829     4831 1
    8040     7340     7342 1
    8041     6584     6586 1
    8042     6422     6424 1
    8043     7502     7504 1
    8044     8501     8503 1
    8045     3233     3234 1
    8046      562      563 1
    8047     1114     1093 1
    8048     1654     1633 1
    8049     2829     2830 1
    8050     4006     4007 1
    8051     7535     7537 1
    8052     2676     2677 1
    8053    10187    10189 1
    8054    10349    10351 1
    8055    11267    11269 1
    8056     8897     8899 1
    8057     2675     2676 1
    8058     3638     3639 1
    8059     2564     2565 1
    8060     2330     2331 1
    8061      412      413 1
    8062       62       63 1
    8063     5192     5193 1
    8064     1972     1973 1
    8065     3371     3372 1
    8066     1781     1782 1
    8067     1869     1880 1
    8068     4553     4554 1
    8069     3718     3719 1
    8070     2510     2511 1
    8071     2034     2035 1
    8072     3470     3471 1
    8073     4448     4449 1
    8074     4406     4408 1
    8075    10235    10236 1
    8076    10397    10398 1
    8077     1250     1252 1
    8078     3684     3663 1
    8079     3020     3021 1
    8080     9293     9295 1
    8081     9131     9133 1
    8082     6092     6093 1
    8083    10745    10747 1
    8084     8846     8847 1
    8085    11216    11217 1
    8086    10622    10623 1
    8087    10664    10666 1
    8088     9542     9543 1
    8089    10826    10828 1
    8090     6497     6498 1
    8091     7847     7848 1
    8092     2686     2689 1
    8093     9491     9492 1
    8094     3723     3724 1
    8095     3172     3175 1
    8096     9119     9121 1
    8097     3285     3286 1
    8098      285      286 1
    8099     4337     4338 1
    8100     9101     9103 1
    8101     8858     8860 1
    8102     8696     8698 1
    8103     7103     7105 1
    8104     7022     7024 1
    8105       97       98 1
    8106     6860     6862 1
    8107     3239     3240 1
    8108    10511    10512 1
    8109    11213    11214 1
    8110    10592    10593 1
    8111    10970    10971 1
    8112    11051    11052 1
    8113    10430    10431 1
    8114    11132    11133 1
    8115     1628     1629 1
    8116     6521     6522 1
    8117     3632     3633 1
    8118     5171     5172 1
    8119     7844     7845 1
    8120     6089     6090 1
    8121     3880     3881 1
    8122     5441     5442 1
    8123      958      959 1
    8124      421      422 1
    8125      888      889 1
    8126      564      565 1
    8127     3830     3831 1
    8128     3404     3405 1
    8129     2005     2004 1
    8130     2867     2868 1
    8131      269      268 1
    8132    10922    10923 1
    8133        6        7 1
    8134     1412     1415 1
    8135      684      685 1
    8136     5471     5472 1
    8137     3917     3918 1
    8138     3574     3575 1
    8139     3886     3887 1
    8140     3015     3016 1
    8141     1597     1598 1
    8142     3989     3978 1
    8143     2754     2755 1
    8144     2865     2866 1
    8145     6866     6868 1
    8146     5006     5007 1
    8147     5762     5763 1
    8148     7760     7761 1
    8149     4925     4926 1
    8150     7679     7680 1
    8151     5681     5682 1
    8152     5924     5925 1
    8153     9515     9516 1
    8154     7928     7930 1
    8155     8519     8521 1
    8156     5975     5976 1
    8157     2077     2078 1
    8158     2080     2081 1
    8159     3484     3485 1
    8160     7046     7047 1
    8161     8963     8964 1
    8162     6506     6507 1
    8163     7208     7209 1
    8164     1062     1063 1
    8165     1310     1311 1
    8166     5939     5941 1
    8167     3764     3765 1
    8168     3656     3657 1
    8169     9470     9472 1
    8170      166      165 1
    8171     1006     1007 1
    8172      130      131 1
    8173     1461     1462 1
    8174      725      726 1
    8175    11918    11919 1
    8176     3567     3568 1
    8177     2811     2812 1
    8178     4241     4240 1
    8179     2950     2952 1
    8180     8060     8062 1
    8181     5387     5389 1
    8182     4361     4362 1
    8183     4271     4272 1
    8184     2555     2556 1
    8185     2780     2781 1
    8186      736      737 1
    8187     1276     1277 1
    8188     1932     1933 1
    8189     4787     4788 1
    8190     9215     9216 1
    8191      102      103 1
    8192     1927     1928 1
    8193     9182     9183 1
    8194     9020     9021 1
    8195     7265     7266 1
    8196     3874     3875 1
    8197     2479     2480 1
    8198      747      748 1
    8199     9533     9534 1
    8200     4371     4370 1
    8201     9695     9696 1
    8202    11612    11613 1
    8203      555      556 1
    8204    11963    11964 1
    8205     9884     9885 1
    8206     4281     4280 1
    8207     2751     2752 1
    8208     3843     3844 1
    8209     8153     8155 1
    8210     7397     7399 1
    8211    11444    11446 1
    8212    10850    10852 1
    8213     6398     6400 1
    8214     9932     9934 1
    8215     5480     5482 1
    8216     2427     2428 1
    8217    11012    11014 1
    8218    10094    10096 1
    8219     6988     6986 1
    8220     8801     8803 1
    8221     4337     4326 1
    8222     3061     3062 1
    8223     6002     6004 1
    8224     7284     7283 1
    8225     9201     9200 1
    8226     1768     1757 1
    8227      406      407 1
    8228     1693     1694 1
    8229     1514     1516 1
    8230    10718    10719 1
    8231     3877     3878 1
    8232     8120     8122 1
    8233       88       67 1
    8234     3059     3060 1
    8235     2519     2520 1
    8236     2145     2134 1
    8237     2768     2770 1
    8238     4859     4860 1
    8239     1218     1217 1
    8240    10832    10834 1
    8241    10670    10672 1
    8242    10751    10753 1
    8243     4595     4596 1
    8244     4556     4558 1
    8245     1027     1030 1
    8246     2123     2124 1
    8247     7736     7737 1
    8248     4982     4983 1
    8249     3090     3091 1
    8250     7979     7980 1
    8251     4421     4422 1
    8252     7898     7899 1
    8253     5144     5145 1
    8254     3814     3816 1
    8255     5900     5901 1
    8256     5981     5982 1
    8257     1698     1699 1
    8258     1266     1267 1
    8259     1047     1048 1
    8260      850      851 1
    8261      316      317 1
    8262     1078     1079 1
    8263     1723     1724 1
    8264     9497     9498 1
    8265     3725     3726 1
    8266     2645     2646 1
    8267     2095     2094 1
    8268     8933     8934 1
    8269     6692     6693 1
    8270     9014     9015 1
    8271     7259     7260 1
    8272     8771     8772 1
    8273     6935     6936 1
    8274     3516     3515 1
    8275     9176     9177 1
    8276     1572     1573 1
    8277    10463    10464 1
    8278     1007     1008 1
    8279     9950     9951 1
    8280    10301    10302 1
    8281    10112    10113 1
    8282     2000     2001 1
    8283     2096     2097 1
    8284     1307     1308 1
    8285      736      715 1
    8286      492      493 1
    8287      708      709 1
    8288      474      473 1
    8289    10556    10557 1
    8290     1185     1186 1
    8291    11933    11934 1
    8292     1410     1411 1
    8293     9935     9936 1
    8294    10016    10017 1
    8295    10637    10638 1
    8296    10313    10314 1
    8297    10175    10176 1
    8298    11894    11896 1
    8299     9743     9744 1
    8300    11660    11661 1
    8301     9905     9906 1
    8302    11255    11256 1
    8303    10337    10338 1
    8304    11975    11977 1
    8305     9896     9898 1
    8306    10742    10743 1
    8307    11732    11734 1
    8308      802      803 1
    8309     2172     2173 1
    8310     1578     1577 1
    8311     2207     2209 1
    8312     1412     1414 1
    8313    10967    10968 1
    8314    11129    11130 1
    8315     5174     5176 1
    8316      895      894 1
    8317     2434     2435 1
    8318     3508     3509 1
    8319     3372     3373 1
    8320     2298     2299 1
    8321     1375     1376 1
    8322     1057     1058 1
    8323    10289    10291 1
    8324    10451    10453 1
    8325     3773     3775 1
    8326      782      783 1
    8327     8234     8235 1
    8328     9953     9954 1
    8329     6992     6993 1
    8330     1213     1214 1
    8331    10871    10872 1
    8332    10304    10305 1
    8333      451      452 1
    8334    10466    10467 1
    8335     5399     5400 1
    8336     1321     1322 1
    8337      247      248 1
    8338       15       16 1
    8339      559      560 1
    8340     4017     4018 1
    8341     4553     4555 1
    8342     8108     8109 1
    8343     4598     4599 1
    8344     4772     4774 1
    8345     8444     8446 1
    8346     2853     2854 1
    8347     4124     4125 1
    8348     2671     2670 1
    8349     8528     8530 1
    8350     6773     6775 1
    8351     6881     6883 1
    8352     6611     6613 1
    8353      196      175 1
    8354     6962     6964 1
    8355      686      684 1
    8356     4820     4822 1
    8357    10487    10488 1
    8358     2517     2520 1
    8359      249      248 1
    8360     3770     3771 1
    8361     3423     3424 1
    8362     2460     2461 1
    8363      134      135 1
    8364     3529     3530 1
    8365     3424     3425 1
    8366     9539     9541 1
    8367     9701     9703 1
    8368    10214    10216 1
    8369    10052    10054 1
    8370     2344     2345 1
    8371    11618    11620 1
    8372     3265     3266 1
    8373     2425     2423 1
    8374      704      706 1
    8375      158      159 1
    8376     1937     1938 1
    8377     1440     1441 1
    8378      485      484 1
    8379     8810     8811 1
    8380     7946     7947 1
    8381    10472    10473 1
    8382     7280     7281 1
    8383     4481     4482 1
    8384     4433     4434 1
    8385     2962     2963 1
    8386     8009     8011 1
    8387     7712     7714 1
    8388     7631     7633 1
    8389     7724     7725 1
    8390     5699     5700 1
    8391     4087     4088 1
    8392     5714     5716 1
    8393     7616     7617 1
    8394     5336     5338 1
    8395     4877     4879 1
    8396     7967     7968 1
    8397     4970     4971 1
    8398     1071     1072 1
    8399     1182     1183 1
    8400     1849     1850 1
    8401     1008     1010 1
    8402     2386     2387 1
    8403     2587     2588 1
    8404     1358     1360 1
    8405      386      388 1
    8406     4191     4192 1
    8407     5885     5887 1
    8408     5777     5779 1
    8409     7721     7723 1
    8410     5696     5698 1
    8411     7613     7615 1
    8412     4967     4969 1
    8413     7964     7966 1
    8414     5210     5212 1
    8415     5327     5328 1
    8416     8000     8001 1
    8417     6434     6435 1
    8418     6245     6246 1
    8419     6596     6597 1
    8420      431      432 1
    8421      632      633 1
    8422      959      960 1
    8423     3493     3494 1
    8424     5864     5866 1
    8425     5027     5029 1
    8426     7862     7864 1
    8427     7781     7783 1
    8428     5108     5110 1
    8429     6245     6247 1
    8430     7091     7092 1
    8431    11447    11449 1
    8432    11906    11908 1
    8433     9827     9829 1
    8434    10070    10072 1
    8435     3671     3672 1
    8436     2483     2484 1
    8437     2594     2595 1
    8438     2372     2373 1
    8439     4038     4039 1
    8440    11366    11368 1
    8441     1915     1916 1
    8442     3242     3243 1
    8443     2033     2034 1
    8444     1513     1516 1
    8445    10520    10522 1
    8446     9845     9847 1
    8447    10601    10603 1
    8448    11924    11926 1
    8449    10088    10090 1
    8450    10439    10441 1
    8451     3553     3554 1
    8452     1839     1840 1
    8453     3114     3115 1
    8454     4247     4248 1
    8455     6404     6405 1
    8456     5486     5487 1
    8457     7403     7404 1
    8458     8159     8160 1
    8459     9482     9483 1
    8460     9158     9159 1
    8461     7241     7242 1
    8462      984      983 1
    8463     2250     2248 1
    8464     4448     4450 1
    8465     7961     7962 1
    8466     3312     3313 1
    8467    11942    11943 1
    8468    11429    11430 1
    8469    10025    10026 1
    8470    11105    11106 1
    8471     2788     2790 1
    8472     4000     4001 1
    8473     2874     2875 1
    8474      922      923 1
    8475      862      863 1
    8476      313      314 1
    8477     4327     4328 1
    8478     4237     4238 1
    8479      535      536 1
    8480      424      425 1
    8481     1340     1341 1
    8482      266      265 1
    8483     1975     1976 1
    8484     2442     2421 1
    8485     1797     1798 1
    8486       84       85 1
    8487      600      601 1
    8488     1518     1519 1
    8489     1524     1525 1
    8490    12056    12058 1
    8491    11867    11869 1
    8492    10139    10141 1
    8493     3847     3848 1
    8494     1588     1589 1
    8495      799      800 1
    8496       88       89 1
    8497     1908     1897 1
    8498     7933     7931 1
    8499     1792     1793 1
    8500     1499     1500 1
    8501     2629     2630 1
    8502     2437     2438 1
    8503     2755     2756 1
    8504     1335     1336 1
    8505     3594     3595 1
    8506     2610     2611 1
    8507     3400     3401 1
    8508     2326     2327 1
    8509     3628     3629 1
    8510     2836     2837 1
    8511     3829     3830 1
    8512     3483     3484 1
    8513     9527     9529 1
    8514    10181    10183 1
    8515    11261    11263 1
    8516    10343    10345 1
    8517       90       91 1
    8518     5171     5173 1
    8519     6089     6091 1
    8520     6521     6523 1
    8521     7844     7846 1
    8522     9713     9715 1
    8523     9551     9553 1
    8524    11846    11848 1
    8525    12008    12010 1
    8526    11630    11632 1
    8527      144      146 1
    8528     6839     6840 1
    8529     3492     3493 1
    8530     3445     3446 1
    8531     3717     3718 1
    8532     1546     1547 1
    8533    11243    11245 1
    8534     9893     9895 1
    8535    11972    11974 1
    8536    10703    10705 1
    8537     3116     3115 1
    8538    11432    11434 1
    8539    10277    10278 1
    8540     2991     2992 1
    8541     1762     1761 1
    8542      609      611 1
    8543    11054    11055 1
    8544     2135     2134 1
    8545     6305     6307 1
    8546     3623     3624 1
    8547     2762     2763 1
    8548     3836     3837 1
    8549     1760     1761 1
    8550     7346     7347 1
    8551     6428     6429 1
    8552     7508     7509 1
    8553     4835     4836 1
    8554     8507     8508 1
    8555     6590     6591 1
    8556     2272     2273 1
    8557     4236     4237 1
    8558     4329     4330 1
    8559     4454     4456 1
    8560     4646     4648 1
    8561     4106     4107 1
    8562    10985    10987 1
    8563    11309    11311 1
    8564    11066    11068 1
    8565     9364     9362 1
    8566     4247     4236 1
    8567       77       78 1
    8568     1479     1478 1
    8569    11873    11874 1
    8570    10145    10146 1
    8571    12062    12063 1
    8572     1618     1619 1
    8573     2138     2139 1
    8574     9899     9901 1
    8575    11978    11980 1
    8576    11438    11440 1
    8577     3816     3817 1
    8578     6215     6217 1
    8579     1160     1161 1
    8580      947      948 1
    8581     2348     2347 1
    8582     3650     3649 1
    8583     4850     4852 1
    8584     9020     9022 1
    8585     7265     7267 1
    8586     3874     3876 1
    8587     9182     9184 1
    8588     4157     4158 1
    8589    10967    10969 1
    8590    11129    11131 1
    8591     2352     2353 1
    8592     2775     2776 1
    8593     8138     8140 1
    8594     8564     8565 1
    8595     3643     3644 1
    8596     8330     8331 1
    8597     6737     6738 1
    8598     6683     6684 1
    8599     8600     8601 1
    8600     3109     3110 1
    8601     6575     6576 1
    8602     6845     6846 1
    8603    10055    10057 1
    8604     8762     8763 1
    8605     8891     8893 1
    8606      828      829 1
    8607     1161     1162 1
    8608      936      937 1
    8609     5339     5340 1
    8610     5474     5475 1
    8611     8012     8013 1
    8612     6716     6717 1
    8613      930      931 1
    8614     6257     6258 1
    8615     1254     1255 1
    8616     6665     6666 1
    8617     8582     8583 1
    8618     5666     5667 1
    8619     7745     7746 1
    8620     8744     8745 1
    8621     6827     6828 1
    8622     9500     9501 1
    8623      629      630 1
    8624     1277     1278 1
    8625     4910     4911 1
    8626     6659     6660 1
    8627      952      931 1
    8628       72       73 1
    8629    10961    10962 1
    8630    11123    11124 1
    8631      132      133 1
    8632    12038    12039 1
    8633    10121    10122 1
    8634    11498    11499 1
    8635    11336    11337 1
    8636     7031     7033 1
    8637     9299     9301 1
    8638      472      473 1
    8639     6869     6871 1
    8640     9137     9139 1
    8641     9110     9112 1
    8642     1913     1914 1
    8643      188      189 1
    8644    10913    10914 1
    8645    11102    11103 1
    8646    10535    10536 1
    8647    10373    10374 1
    8648     1236     1237 1
    8649     3304     3305 1
    8650     3619     3620 1
    8651     3616     3617 1
    8652     3730     3731 1
    8653     3505     3506 1
    8654     3841     3842 1
    8655     1662     1663 1
    8656     8580     8579 1
    8657     3193     3194 1
    8658     9161     9162 1
    8659     2901     2902 1
    8660     3549     3550 1
    8661     3503     3504 1
    8662     2963     2964 1
    8663     9287     9288 1
    8664    11006    11007 1
    8665     9125     9126 1
    8666     1540     1541 1
    8667      119      120 1
    8668     7736     7738 1
    8669     5900     5902 1
    8670     7979     7981 1
    8671     4421     4423 1
    8672     5225     5227 1
    8673     5144     5146 1
    8674     4982     4984 1
    8675     6857     6859 1
    8676     7898     7900 1
    8677     5981     5983 1
    8678     4481     4483 1
    8679     4433     4435 1
    8680     9497     9499 1
    8681     1600     1601 1
    8682     9014     9016 1
    8683     8933     8935 1
    8684     7259     7261 1
    8685     6692     6694 1
    8686     8771     8773 1
    8687     6935     6937 1
    8688     9176     9178 1
    8689     5738     5740 1
    8690     2306     2307 1
    8691     3665     3666 1
    8692     3974     3963 1
    8693     1107     1106 1
    8694     3466     3465 1
    8695     2906     2907 1
    8696     3675     3676 1
    8697     3138     3139 1
    8698     3462     3463 1
    8699     9623     9624 1
    8700    11159    11161 1
    8701    11483    11485 1
    8702    11240    11242 1
    8703     7142     7144 1
    8704     6533     6534 1
    8705     2891     2892 1
    8706     8822     8823 1
    8707     9011     9012 1
    8708     4799     4800 1
    8709     7823     7824 1
    8710     5825     5826 1
    8711     5636     5637 1
    8712     3302     3303 1
    8713     3614     3615 1
    8714      520      521 1
    8715      284      285 1
    8716      170      171 1
    8717       18       19 1
    8718     1775     1776 1
    8719     2334     2313 1
    8720     3198     3177 1
    8721     9305     9307 1
    8722     6470     6472 1
    8723     7820     7822 1
    8724     7658     7660 1
    8725     5741     5743 1
    8726     8738     8740 1
    8727     4823     4825 1
    8728     9143     9145 1
    8729     6659     6661 1
    8730     4301     4302 1
    8731    11801    11802 1
    8732    11639    11640 1
    8733    11450    11451 1
    8734     9560     9561 1
    8735     9722     9723 1
    8736    10109    10110 1
    8737     2436     2437 1
    8738     2325     2326 1
    8739     1345     1346 1
    8740    10097    10099 1
    8741     5363     5364 1
    8742    11312    11314 1
    8743     6362     6363 1
    8744     8036     8037 1
    8745     6200     6201 1
    8746     5687     5688 1
    8747     8117     8118 1
    8748     8279     8280 1
    8749    10988    10990 1
    8750     4931     4932 1
    8751     7817     7818 1
    8752     6248     6250 1
    8753     2515     2516 1
    8754     2290     2291 1
    8755     6560     6562 1
    8756     5888     5889 1
    8757     1265     1266 1
    8758     7223     7224 1
    8759     7616     7618 1
    8760     5699     5701 1
    8761     7967     7969 1
    8762     5213     5215 1
    8763     3550     3552 1
    8764     5888     5890 1
    8765     7697     7699 1
    8766     1530     1529 1
    8767      573      572 1
    8768     7724     7726 1
    8769      109      112 1
    8770      221      220 1
    8771      759      760 1
    8772     3132     3133 1
    8773     3418     3416 1
    8774     3027     3028 1
    8775    10916    10917 1
    8776     8000     8002 1
    8777     5327     5329 1
    8778     6434     6436 1
    8779     9248     9249 1
    8780     9086     9087 1
    8781     5819     5820 1
    8782     3124     3125 1
    8783     9167     9168 1
    8784     7250     7251 1
    8785     3416     3417 1
    8786     5657     5658 1
    8787     5738     5739 1
    8788     2980     2979 1
    8789     4128     4117 1
    8790     1439     1440 1
    8791      791      792 1
    8792     1196     1199 1
    8793    10274    10275 1
    8794      176      177 1
    8795    12029    12030 1
    8796     1356     1357 1
    8797     1665     1664 1
    8798     3895     3896 1
    8799     3889     3890 1
    8800     3879     3880 1
    8801    10922    10924 1
    8802     2166     2167 1
    8803     4345     4344 1
    8804     6502     6500 1
    8805     7123     7121 1
    8806     8878     8876 1
    8807     7733     7734 1
    8808     6896     6897 1
    8809     5978     5979 1
    8810     5222     5223 1
    8811     7895     7896 1
    8812     9104     9106 1
    8813     2827     2828 1
    8814     1419     1421 1
    8815      778      779 1
    8816     1730     1731 1
    8817     2821     2822 1
    8818     5075     5076 1
    8819     8072     8073 1
    8820     8909     8910 1
    8821     5831     5832 1
    8822     7910     7911 1
    8823     5237     5238 1
    8824    11576    11578 1
    8825    11819    11821 1
    8826     9983     9985 1
    8827    11306    11308 1
    8828     9821     9823 1
    8829    11657    11659 1
    8830     9740     9742 1
    8831     9578     9580 1
    8832     7919     7920 1
    8833     2026     2027 1
    8834     4045     4046 1
    8835     2421     2422 1
    8836      136      137 1
    8837      112      113 1
    8838    10568    10570 1
    8839    10838    10840 1
    8840    10325    10327 1
    8841    10676    10678 1
    8842     2693     2694 1
    8843    10649    10651 1
    8844     1484     1485 1
    8845    10757    10759 1
    8846    10487    10489 1
    8847    11870    11871 1
    8848      703      706 1
    8849     5426     5428 1
    8850     8903     8904 1
    8851     7013     7014 1
    8852     7796     7797 1
    8853     1547     1548 1
    8854        5        4 1
    8855     5543     5544 1
    8856     8198     8199 1
    8857     7304     7306 1
    8858      251      250 1
    8859     3306     3285 1
    8860     5537     5538 1
    8861     1951     1952 1
    8862     7454     7455 1
    8863     4943     4944 1
    8864     5159     5160 1
    8865     7832     7833 1
    8866     6077     6078 1
    8867     9371     9372 1
    8868     4616     4617 1
    8869     4781     4782 1
    8870     1548     1550 1
    8871     1853     1854 1
    8872     1660     1661 1
    8873     5534     5536 1
    8874     7559     7561 1
    8875     5048     5050 1
    8876     3297     3298 1
    8877     4940     4942 1
    8878     4778     4780 1
    8879     5642     5644 1
    8880     7640     7642 1
    8881     7370     7372 1
    8882    11282    11284 1
    8883     4658     4659 1
    8884     3392     3391 1
    8885     3131     3132 1
    8886     3026     3027 1
    8887     2708     2709 1
    8888    10928    10929 1
    8889    10577    10578 1
    8890     1165     1166 1
    8891    10334    10335 1
    8892    10658    10659 1
    8893     4145     4146 1
    8894    10496    10497 1
    8895     1112     1113 1
    8896     2296     2297 1
    8897      214      213 1
    8898    10844    10846 1
    8899    10574    10576 1
    8900    10763    10765 1
    8901    10655    10657 1
    8902    10331    10333 1
    8903    10682    10684 1
    8904    10439    10440 1
    8905    10493    10495 1
    8906     3609     3610 1
    8907       15       17 1
    8908     3106     3105 1
    8909     2851     2852 1
    8910     2627     2628 1
    8911     1602     1604 1
    8912     8168     8170 1
    8913      407      408 1
    8914     2032     2031 1
    8915     1481     1482 1
    8916     1370     1371 1
    8917     6428     6430 1
    8918     7508     7510 1
    8919     7346     7348 1
    8920     4835     4837 1
    8921     8507     8509 1
    8922     6590     6592 1
    8923    10913    10915 1
    8924    10535    10537 1
    8925    10373    10375 1
    8926    11102    11104 1
    8927     2988     2989 1
    8928     3537     3538 1
    8929     1149     1151 1
    8930     1473     1475 1
    8931     3284     3285 1
    8932     8546     8547 1
    8933     6791     6792 1
    8934     6629     6630 1
    8935      939      940 1
    8936     1050     1051 1
    8937      646      647 1
    8938     1285     1286 1
    8939     1396     1397 1
    8940     3728     3729 1
    8941     2654     2655 1
    8942     2966     2967 1
    8943     4937     4938 1
    8944     5153     5154 1
    8945     5531     5532 1
    8946     6071     6072 1
    8947      858      857 1
    8948      525      524 1
    8949     3627     3626 1
    8950     4775     4776 1
    8951     7826     7827 1
    8952     9365     9366 1
    8953     1454     1453 1
    8954    10625    10626 1
    8955    10787    10788 1
    8956     3476     3477 1
    8957     2513     2514 1
    8958     3022     3023 1
    8959    10553    10554 1
    8960    10463    10465 1
    8961     9950     9952 1
    8962    10301    10303 1
    8963     2551     2552 1
    8964    10904    10905 1
    8965    10634    10635 1
    8966     4283     4284 1
    8967     4373     4374 1
    8968    10310    10311 1
    8969    10112    10114 1
    8970     6437     6439 1
    8971     6518     6520 1
    8972     8516     8518 1
    8973     6599     6601 1
    8974     2183     2184 1
    8975      638      639 1
    8976     3146     3148 1
    8977     1067     1068 1
    8978     1175     1176 1
    8979     1196     1198 1
    8980    11831    11832 1
    8981     9995     9996 1
    8982     4604     4605 1
    8983    11993    11994 1
    8984    10157    10158 1
    8985     1584     1585 1
    8986        1        4 1
    8987     2403     2404 1
    8988     3054     3055 1
    8989      372      373 1
    8990     1446     1447 1
    8991      264      265 1
    8992     3449     3451 1
    8993     2577     2578 1
    8994     3557     3559 1
    8995     4323     4324 1
    8996     2801     2803 1
    8997      198      199 1
    8998     8600     8602 1
    8999     6683     6685 1
    9000     1526     1527 1
    9001     6737     6739 1
    9002     8330     8332 1
    9003     8762     8764 1
    9004     6575     6577 1
    9005     6845     6847 1
    9006     8855     8857 1
    9007     4622     4623 1
    9008     5339     5341 1
    9009     5474     5476 1
    9010     8012     8014 1
    9011     6716     6718 1
    9012     6257     6259 1
    9013     3546     3547 1
    9014     2605     2606 1
    9015     8744     8746 1
    9016     7745     7747 1
    9017     6665     6667 1
    9018     8582     8584 1
    9019     6827     6829 1
    9020     4187     4176 1
    9021     9500     9502 1
    9022     5666     5668 1
    9023     4910     4912 1
    9024     2360     2359 1
    9025     2571     2574 1
    9026     3964     3965 1
    9027     3667     3665 1
    9028    11681    11682 1
    9029     3642     3643 1
    9030     4072     4061 1
    9031     3020     3019 1
    9032     1320     1321 1
    9033     1472     1473 1
    9034     6542     6543 1
    9035     4529     4530 1
    9036     3178     3179 1
    9037     2606     2607 1
    9038     2930     2931 1
    9039     6443     6445 1
    9040     6524     6526 1
    9041     6605     6607 1
    9042     4997     4998 1
    9043     7670     7671 1
    9044     5753     5754 1
    9045     8669     8670 1
    9046     6752     6753 1
    9047     6914     6915 1
    9048     5915     5916 1
    9049     2578     2579 1
    9050     1722     1723 1
    9051      209      210 1
    9052     1173     1174 1
    9053     9089     9090 1
    9054    11027    11028 1
    9055     1899     1900 1
    9056      478      479 1
    9057     5894     5895 1
    9058     7730     7731 1
    9059     7973     7974 1
    9060     4976     4977 1
    9061     8945     8946 1
    9062     5219     5220 1
    9063     5138     5139 1
    9064     7892     7893 1
    9065     8783     8784 1
    9066     2127     2128 1
    9067     1368     1367 1
    9068     1167     1166 1
    9069     8726     8728 1
    9070     8375     8377 1
    9071     5135     5137 1
    9072     6647     6649 1
    9073     8213     8215 1
    9074     2161     2162 1
    9075     8171     8172 1
    9076    10541    10542 1
    9077    11945    11946 1
    9078     7415     7416 1
    9079     6416     6417 1
    9080     9812     9813 1
    9081     5498     5499 1
    9082    10217    10218 1
    9083     7253     7254 1
    9084     4466     4468 1
    9085     1082     1084 1
    9086     4514     4516 1
    9087       73       74 1
    9088     7544     7546 1
    9089     3907     3908 1
    9090     2944     2945 1
    9091      184      185 1
    9092     1751     1752 1
    9093     4011     4012 1
    9094     3695     3696 1
    9095     2089     2090 1
    9096     1999     2000 1
    9097    11168    11170 1
    9098    11276    11278 1
    9099    10952    10954 1
    9100    11492    11494 1
    9101    11816    11818 1
    9102    11654    11656 1
    9103     9737     9739 1
    9104     9575     9577 1
    9105     8822     8824 1
    9106     4799     4801 1
    9107     7823     7825 1
    9108     9011     9013 1
    9109     5825     5827 1
    9110     5636     5638 1
    9111     3933     3922 1
    9112     1411     1412 1
    9113     6656     6658 1
    9114     7565     7566 1
    9115     5054     5055 1
    9116     7646     7647 1
    9117     5810     5811 1
    9118     4946     4947 1
    9119     4784     4785 1
    9120     5648     5649 1
    9121     5540     5541 1
    9122     7376     7377 1
    9123     7457     7458 1
    9124     2679     2682 1
    9125     4378     4379 1
    9126     2920     2919 1
    9127     1088     1089 1
    9128     3677     3676 1
    9129     1066     1067 1
    9130     1291     1292 1
    9131      643      644 1
    9132     7802     7803 1
    9133     1180     1181 1
    9134     6149     6150 1
    9135     5312     5313 1
    9136     5393     5394 1
    9137     1110     1111 1
    9138     7202     7203 1
    9139     2327     2328 1
    9140    11165    11166 1
    9141    11489    11490 1
    9142      764      767 1
    9143    11246    11247 1
    9144     2129     2130 1
    9145        7        8 1
    9146     9449     9451 1
    9147      633      634 1
    9148     1656     1658 1
    9149      900      902 1
    9150     1626     1627 1
    9151     4135     4136 1
    9152     3986     3987 1
    9153     3840     3841 1
    9154     3729     3730 1
    9155     2430     2431 1
    9156     4706     4708 1
    9157     3516     3517 1
    9158     7298     7300 1
    9159     3267     3266 1
    9160      740      741 1
    9161     5177     5178 1
    9162     1239     1240 1
    9163     1014     1015 1
    9164      591      592 1
    9165     3082     3083 1
    9166     3042     3043 1
    9167      480      481 1
    9168     2400     2401 1
    9169     2730     2731 1
    9170     2622     2623 1
    9171    11153    11155 1
    9172    11477    11479 1
    9173     1864     1865 1
    9174    11234    11236 1
    9175      881      882 1
    9176    11600    11601 1
    9177     2401     2402 1
    9178     1733     1734 1
    9179     3475     3476 1
    9180     1643     1644 1
    9181     7574     7576 1
    9182     9491     9493 1
    9183     5819     5821 1
    9184     4661     4663 1
    9185     7412     7414 1
    9186     9248     9250 1
    9187     7331     7333 1
    9188     9167     9169 1
    9189     7250     7252 1
    9190     3692     3693 1
    9191    10523    10525 1
    9192    11603    11605 1
    9193     1578     1579 1
    9194      250      229 1
    9195    11891    11892 1
    9196      358      359 1
    9197     9149     9151 1
    9198     3763     3762 1
    9199     9623     9625 1
    9200     9785     9787 1
    9201    11702    11704 1
    9202    10973    10975 1
    9203    11540    11542 1
    9204     9722     9724 1
    9205    11135    11137 1
    9206     2897     2898 1
    9207     3005     3006 1
    9208     3252     3231 1
    9209     2928     2907 1
    9210     4192     4193 1
    9211      790      769 1
    9212      351      350 1
    9213     1653     1652 1
    9214     1937     1926 1
    9215     2709     2710 1
    9216     9008     9009 1
    9217     1881     1870 1
    9218     2302     2304 1
    9219      602      603 1
    9220     4217     4206 1
    9221     4358     4359 1
    9222     1337     1338 1
    9223     1454     1455 1
    9224     1935     1936 1
    9225     1759     1760 1
    9226     1432     1433 1
    9227     1509     1510 1
    9228     1176     1177 1
    9229    11936    11937 1
    9230      385      386 1
    9231    11099    11100 1
    9232      987      988 1
    9233    10019    10020 1
    9234    11768    11770 1
    9235     9851     9853 1
    9236     3280     3282 1
    9237    10931    10933 1
    9238     5330     5331 1
    9239      451      450 1
    9240     1291     1290 1
    9241     1180     1179 1
    9242     3347     3348 1
    9243     3236     3237 1
    9244    11090    11091 1
    9245    11333    11334 1
    9246    11009    11010 1
    9247       85       86 1
    9248     4082     4083 1
    9249     1214     1215 1
    9250      452      453 1
    9251     9629     9631 1
    9252    11708    11710 1
    9253    11546    11548 1
    9254     9791     9793 1
    9255     8903     8905 1
    9256     2257     2258 1
    9257     7013     7015 1
    9258     7796     7798 1
    9259      661      660 1
    9260     2311     2312 1
    9261      830      831 1
    9262     4943     4945 1
    9263     4781     4783 1
    9264     5159     5161 1
    9265     5537     5539 1
    9266      885      884 1
    9267     7454     7456 1
    9268     9371     9373 1
    9269     4616     4618 1
    9270     7832     7834 1
    9271     6077     6079 1
    9272     9995     9997 1
    9273    11831    11833 1
    9274     4604     4606 1
    9275    11993    11995 1
    9276    10157    10159 1
    9277     4709     4711 1
    9278      618      619 1
    9279     1269     1270 1
    9280     1692     1693 1
    9281     6824     6825 1
    9282      234      235 1
    9283     1146     1147 1
    9284     1895     1896 1
    9285     1586     1587 1
    9286     1559     1560 1
    9287     6989     6990 1
    9288     7070     7071 1
    9289     1493     1494 1
    9290     7151     7152 1
    9291     1914     1915 1
    9292      261      260 1
    9293     2803     2804 1
    9294     4340     4341 1
    9295     4250     4251 1
    9296    11174    11175 1
    9297     9581     9582 1
    9298       39       40 1
    9299      475      476 1
    9300     8246     8248 1
    9301     5411     5413 1
    9302     5708     5710 1
    9303     7625     7627 1
    9304     8003     8005 1
    9305     5330     5332 1
    9306     5789     5791 1
    9307     6167     6169 1
    9308     6005     6007 1
    9309     1752     1753 1
    9310      923      924 1
    9311      965      966 1
    9312      308      309 1
    9313      185      186 1
    9314      764      766 1
    9315    10292    10293 1
    9316     4652     4653 1
    9317     9563     9564 1
    9318    11804    11805 1
    9319    11642    11643 1
    9320     9725     9726 1
    9321    10454    10455 1
    9322     4391     4393 1
    9323     1344     1345 1
    9324     1593     1594 1
    9325     3912     3913 1
    9326     2214     2215 1
    9327      582      583 1
    9328     1907     1908 1
    9329     1455     1456 1
    9330      835      836 1
    9331      298      299 1
    9332     9614     9616 1
    9333    11882    11884 1
    9334    11531    11533 1
    9335    11693    11695 1
    9336     1804     1805 1
    9337     1048     1049 1
    9338     4595     4597 1
    9339     5729     5730 1
    9340     9776     9778 1
    9341    11720    11722 1
    9342     1318     1319 1
    9343     1429     1430 1
    9344     6791     6793 1
    9345     8546     8548 1
    9346     1099     1100 1
    9347     6629     6631 1
    9348      355      356 1
    9349     4529     4531 1
    9350      623      622 1
    9351     2893     2892 1
    9352      512      511 1
    9353     7766     7768 1
    9354     2713     2714 1
    9355     5531     5533 1
    9356     7826     7828 1
    9357     4937     4939 1
    9358     4775     4777 1
    9359     5153     5155 1
    9360     6071     6073 1
    9361     9365     9367 1
    9362     7448     7450 1
    9363     3818     3819 1
    9364     2909     2910 1
    9365     4607     4609 1
    9366     3690     3691 1
    9367     9452     9454 1
    9368     2690     2691 1
    9369     2592     2593 1
    9370      159      160 1
    9371    11564    11566 1
    9372     9971     9973 1
    9373     9809     9811 1
    9374     3382     3384 1
    9375    11375    11377 1
    9376     2486     2485 1
@<TRIPOS>SUBSTRUCTURE
       1 RES             1 RESIDUE    0 **** ROOT      0
